data_image0
_chemical_formula_structural       Li2Co3O6Li3Co3O6Li3Co3O6Li3Co3O6Li3Co3O6Li3Co3O6Li3Co3O6Li3Co3O6Li3Co3O6Li3Co3O6Li3Co3O6Li3Co3O6Li3Co3O6Li3Co3O6Li3Co3O6Li3Co3O6
_chemical_formula_sum              "Li47 Co48 O96"
_cell_length_a       11.2644
_cell_length_b       11.2644
_cell_length_c       14.0536
_cell_angle_alpha    90
_cell_angle_beta     90
_cell_angle_gamma    120

_space_group_name_H-M_alt    "P 1"
_space_group_IT_number       1

loop_
  _space_group_symop_operation_xyz
  'x, y, z'

loop_
  _atom_site_type_symbol
  _atom_site_label
  _atom_site_symmetry_multiplicity
  _atom_site_fract_x
  _atom_site_fract_y
  _atom_site_fract_z
  _atom_site_occupancy
  Li  Li1       1.0  0.00000  0.00000  0.00000  1.0000
  Li  Li2       1.0  0.08333  0.16667  0.66667  1.0000
  Co  Co1       1.0  0.00000  0.00000  0.50000  1.0000
  Co  Co2       1.0  0.16667  0.08333  0.83333  1.0000
  Co  Co3       1.0  0.08333  0.16667  0.16667  1.0000
  O   O1        1.0  0.00000  0.00000  0.76049  1.0000
  O   O2        1.0  0.00000  0.00000  0.23951  1.0000
  O   O3        1.0  0.16667  0.08333  0.09382  1.0000
  O   O4        1.0  0.16667  0.08333  0.57284  1.0000
  O   O5        1.0  0.08333  0.16667  0.42716  1.0000
  O   O6        1.0  0.08333  0.16667  0.90618  1.0000
  Li  Li3       1.0  0.00000  0.25000  0.00000  1.0000
  Li  Li4       1.0  0.16667  0.33333  0.33333  1.0000
  Li  Li5       1.0  0.08333  0.41667  0.66667  1.0000
  Co  Co4       1.0  0.00000  0.25000  0.50000  1.0000
  Co  Co5       1.0  0.16667  0.33333  0.83333  1.0000
  Co  Co6       1.0  0.08333  0.41667  0.16667  1.0000
  O   O7        1.0  0.00000  0.25000  0.76049  1.0000
  O   O8        1.0  0.00000  0.25000  0.23951  1.0000
  O   O9        1.0  0.16667  0.33333  0.09382  1.0000
  O   O10       1.0  0.16667  0.33333  0.57284  1.0000
  O   O11       1.0  0.08333  0.41667  0.42716  1.0000
  O   O12       1.0  0.08333  0.41667  0.90618  1.0000
  Li  Li6       1.0  0.00000  0.50000  0.00000  1.0000
  Li  Li7       1.0  0.16667  0.58333  0.33333  1.0000
  Li  Li8       1.0  0.08333  0.66667  0.66667  1.0000
  Co  Co7       1.0  0.00000  0.50000  0.50000  1.0000
  Co  Co8       1.0  0.16667  0.58333  0.83333  1.0000
  Co  Co9       1.0  0.08333  0.66667  0.16667  1.0000
  O   O13       1.0  0.00000  0.50000  0.76049  1.0000
  O   O14       1.0  0.00000  0.50000  0.23951  1.0000
  O   O15       1.0  0.16667  0.58333  0.09382  1.0000
  O   O16       1.0  0.16667  0.58333  0.57284  1.0000
  O   O17       1.0  0.08333  0.66667  0.42716  1.0000
  O   O18       1.0  0.08333  0.66667  0.90618  1.0000
  Li  Li9       1.0  0.00000  0.75000  0.00000  1.0000
  Li  Li10      1.0  0.16667  0.83333  0.33333  1.0000
  Li  Li11      1.0  0.08333  0.91667  0.66667  1.0000
  Co  Co10      1.0  0.00000  0.75000  0.50000  1.0000
  Co  Co11      1.0  0.16667  0.83333  0.83333  1.0000
  Co  Co12      1.0  0.08333  0.91667  0.16667  1.0000
  O   O19       1.0  0.00000  0.75000  0.76049  1.0000
  O   O20       1.0  0.00000  0.75000  0.23951  1.0000
  O   O21       1.0  0.16667  0.83333  0.09382  1.0000
  O   O22       1.0  0.16667  0.83333  0.57284  1.0000
  O   O23       1.0  0.08333  0.91667  0.42716  1.0000
  O   O24       1.0  0.08333  0.91667  0.90618  1.0000
  Li  Li12      1.0  0.25000  0.00000  0.00000  1.0000
  Li  Li13      1.0  0.41667  0.08333  0.33333  1.0000
  Li  Li14      1.0  0.33333  0.16667  0.66667  1.0000
  Co  Co13      1.0  0.25000  0.00000  0.50000  1.0000
  Co  Co14      1.0  0.41667  0.08333  0.83333  1.0000
  Co  Co15      1.0  0.33333  0.16667  0.16667  1.0000
  O   O25       1.0  0.25000  0.00000  0.76049  1.0000
  O   O26       1.0  0.25000  0.00000  0.23951  1.0000
  O   O27       1.0  0.41667  0.08333  0.09382  1.0000
  O   O28       1.0  0.41667  0.08333  0.57284  1.0000
  O   O29       1.0  0.33333  0.16667  0.42716  1.0000
  O   O30       1.0  0.33333  0.16667  0.90618  1.0000
  Li  Li15      1.0  0.25000  0.25000  0.00000  1.0000
  Li  Li16      1.0  0.41667  0.33333  0.33333  1.0000
  Li  Li17      1.0  0.33333  0.41667  0.66667  1.0000
  Co  Co16      1.0  0.25000  0.25000  0.50000  1.0000
  Co  Co17      1.0  0.41667  0.33333  0.83333  1.0000
  Co  Co18      1.0  0.33333  0.41667  0.16667  1.0000
  O   O31       1.0  0.25000  0.25000  0.76049  1.0000
  O   O32       1.0  0.25000  0.25000  0.23951  1.0000
  O   O33       1.0  0.41667  0.33333  0.09382  1.0000
  O   O34       1.0  0.41667  0.33333  0.57284  1.0000
  O   O35       1.0  0.33333  0.41667  0.42716  1.0000
  O   O36       1.0  0.33333  0.41667  0.90618  1.0000
  Li  Li18      1.0  0.25000  0.50000  0.00000  1.0000
  Li  Li19      1.0  0.41667  0.58333  0.33333  1.0000
  Li  Li20      1.0  0.33333  0.66667  0.66667  1.0000
  Co  Co19      1.0  0.25000  0.50000  0.50000  1.0000
  Co  Co20      1.0  0.41667  0.58333  0.83333  1.0000
  Co  Co21      1.0  0.33333  0.66667  0.16667  1.0000
  O   O37       1.0  0.25000  0.50000  0.76049  1.0000
  O   O38       1.0  0.25000  0.50000  0.23951  1.0000
  O   O39       1.0  0.41667  0.58333  0.09382  1.0000
  O   O40       1.0  0.41667  0.58333  0.57284  1.0000
  O   O41       1.0  0.33333  0.66667  0.42716  1.0000
  O   O42       1.0  0.33333  0.66667  0.90618  1.0000
  Li  Li21      1.0  0.25000  0.75000  0.00000  1.0000
  Li  Li22      1.0  0.41667  0.83333  0.33333  1.0000
  Li  Li23      1.0  0.33333  0.91667  0.66667  1.0000
  Co  Co22      1.0  0.25000  0.75000  0.50000  1.0000
  Co  Co23      1.0  0.41667  0.83333  0.83333  1.0000
  Co  Co24      1.0  0.33333  0.91667  0.16667  1.0000
  O   O43       1.0  0.25000  0.75000  0.76049  1.0000
  O   O44       1.0  0.25000  0.75000  0.23951  1.0000
  O   O45       1.0  0.41667  0.83333  0.09382  1.0000
  O   O46       1.0  0.41667  0.83333  0.57284  1.0000
  O   O47       1.0  0.33333  0.91667  0.42716  1.0000
  O   O48       1.0  0.33333  0.91667  0.90618  1.0000
  Li  Li24      1.0  0.50000  0.00000  0.00000  1.0000
  Li  Li25      1.0  0.66667  0.08333  0.33333  1.0000
  Li  Li26      1.0  0.58333  0.16667  0.66667  1.0000
  Co  Co25      1.0  0.50000  0.00000  0.50000  1.0000
  Co  Co26      1.0  0.66667  0.08333  0.83333  1.0000
  Co  Co27      1.0  0.58333  0.16667  0.16667  1.0000
  O   O49       1.0  0.50000  0.00000  0.76049  1.0000
  O   O50       1.0  0.50000  0.00000  0.23951  1.0000
  O   O51       1.0  0.66667  0.08333  0.09382  1.0000
  O   O52       1.0  0.66667  0.08333  0.57284  1.0000
  O   O53       1.0  0.58333  0.16667  0.42716  1.0000
  O   O54       1.0  0.58333  0.16667  0.90618  1.0000
  Li  Li27      1.0  0.50000  0.25000  0.00000  1.0000
  Li  Li28      1.0  0.66667  0.33333  0.33333  1.0000
  Li  Li29      1.0  0.58333  0.41667  0.66667  1.0000
  Co  Co28      1.0  0.50000  0.25000  0.50000  1.0000
  Co  Co29      1.0  0.66667  0.33333  0.83333  1.0000
  Co  Co30      1.0  0.58333  0.41667  0.16667  1.0000
  O   O55       1.0  0.50000  0.25000  0.76049  1.0000
  O   O56       1.0  0.50000  0.25000  0.23951  1.0000
  O   O57       1.0  0.66667  0.33333  0.09382  1.0000
  O   O58       1.0  0.66667  0.33333  0.57284  1.0000
  O   O59       1.0  0.58333  0.41667  0.42716  1.0000
  O   O60       1.0  0.58333  0.41667  0.90618  1.0000
  Li  Li30      1.0  0.50000  0.50000  0.00000  1.0000
  Li  Li31      1.0  0.66667  0.58333  0.33333  1.0000
  Li  Li32      1.0  0.58333  0.66667  0.66667  1.0000
  Co  Co31      1.0  0.50000  0.50000  0.50000  1.0000
  Co  Co32      1.0  0.66667  0.58333  0.83333  1.0000
  Co  Co33      1.0  0.58333  0.66667  0.16667  1.0000
  O   O61       1.0  0.50000  0.50000  0.76049  1.0000
  O   O62       1.0  0.50000  0.50000  0.23951  1.0000
  O   O63       1.0  0.66667  0.58333  0.09382  1.0000
  O   O64       1.0  0.66667  0.58333  0.57284  1.0000
  O   O65       1.0  0.58333  0.66667  0.42716  1.0000
  O   O66       1.0  0.58333  0.66667  0.90618  1.0000
  Li  Li33      1.0  0.50000  0.75000  0.00000  1.0000
  Li  Li34      1.0  0.66667  0.83333  0.33333  1.0000
  Li  Li35      1.0  0.58333  0.91667  0.66667  1.0000
  Co  Co34      1.0  0.50000  0.75000  0.50000  1.0000
  Co  Co35      1.0  0.66667  0.83333  0.83333  1.0000
  Co  Co36      1.0  0.58333  0.91667  0.16667  1.0000
  O   O67       1.0  0.50000  0.75000  0.76049  1.0000
  O   O68       1.0  0.50000  0.75000  0.23951  1.0000
  O   O69       1.0  0.66667  0.83333  0.09382  1.0000
  O   O70       1.0  0.66667  0.83333  0.57284  1.0000
  O   O71       1.0  0.58333  0.91667  0.42716  1.0000
  O   O72       1.0  0.58333  0.91667  0.90618  1.0000
  Li  Li36      1.0  0.75000  0.00000  0.00000  1.0000
  Li  Li37      1.0  0.91667  0.08333  0.33333  1.0000
  Li  Li38      1.0  0.83333  0.16667  0.66667  1.0000
  Co  Co37      1.0  0.75000  0.00000  0.50000  1.0000
  Co  Co38      1.0  0.91667  0.08333  0.83333  1.0000
  Co  Co39      1.0  0.83333  0.16667  0.16667  1.0000
  O   O73       1.0  0.75000  0.00000  0.76049  1.0000
  O   O74       1.0  0.75000  0.00000  0.23951  1.0000
  O   O75       1.0  0.91667  0.08333  0.09382  1.0000
  O   O76       1.0  0.91667  0.08333  0.57284  1.0000
  O   O77       1.0  0.83333  0.16667  0.42716  1.0000
  O   O78       1.0  0.83333  0.16667  0.90618  1.0000
  Li  Li39      1.0  0.75000  0.25000  0.00000  1.0000
  Li  Li40      1.0  0.91667  0.33333  0.33333  1.0000
  Li  Li41      1.0  0.83333  0.41667  0.66667  1.0000
  Co  Co40      1.0  0.75000  0.25000  0.50000  1.0000
  Co  Co41      1.0  0.91667  0.33333  0.83333  1.0000
  Co  Co42      1.0  0.83333  0.41667  0.16667  1.0000
  O   O79       1.0  0.75000  0.25000  0.76049  1.0000
  O   O80       1.0  0.75000  0.25000  0.23951  1.0000
  O   O81       1.0  0.91667  0.33333  0.09382  1.0000
  O   O82       1.0  0.91667  0.33333  0.57284  1.0000
  O   O83       1.0  0.83333  0.41667  0.42716  1.0000
  O   O84       1.0  0.83333  0.41667  0.90618  1.0000
  Li  Li42      1.0  0.75000  0.50000  0.00000  1.0000
  Li  Li43      1.0  0.91667  0.58333  0.33333  1.0000
  Li  Li44      1.0  0.83333  0.66667  0.66667  1.0000
  Co  Co43      1.0  0.75000  0.50000  0.50000  1.0000
  Co  Co44      1.0  0.91667  0.58333  0.83333  1.0000
  Co  Co45      1.0  0.83333  0.66667  0.16667  1.0000
  O   O85       1.0  0.75000  0.50000  0.76049  1.0000
  O   O86       1.0  0.75000  0.50000  0.23951  1.0000
  O   O87       1.0  0.91667  0.58333  0.09382  1.0000
  O   O88       1.0  0.91667  0.58333  0.57284  1.0000
  O   O89       1.0  0.83333  0.66667  0.42716  1.0000
  O   O90       1.0  0.83333  0.66667  0.90618  1.0000
  Li  Li45      1.0  0.75000  0.75000  0.00000  1.0000
  Li  Li46      1.0  0.91667  0.83333  0.33333  1.0000
  Li  Li47      1.0  0.83333  0.91667  0.66667  1.0000
  Co  Co46      1.0  0.75000  0.75000  0.50000  1.0000
  Co  Co47      1.0  0.91667  0.83333  0.83333  1.0000
  Co  Co48      1.0  0.83333  0.91667  0.16667  1.0000
  O   O91       1.0  0.75000  0.75000  0.76049  1.0000
  O   O92       1.0  0.75000  0.75000  0.23951  1.0000
  O   O93       1.0  0.91667  0.83333  0.09382  1.0000
  O   O94       1.0  0.91667  0.83333  0.57284  1.0000
  O   O95       1.0  0.83333  0.91667  0.42716  1.0000
  O   O96       1.0  0.83333  0.91667  0.90618  1.0000
data_image1
_chemical_formula_structural       Li2Co3O6Li3Co3O6Li3Co3O6Li3Co3O6Li3Co3O6Li3Co3O6Li3Co3O6Li3Co3O6Li3Co3O6Li3Co3O6Li3Co3O6Li3Co3O6Li3Co3O6Li3Co3O6Li3Co3O6Li3Co3O6
_chemical_formula_sum              "Li47 Co48 O96"
_cell_length_a       11.2644
_cell_length_b       11.2644
_cell_length_c       14.0536
_cell_angle_alpha    90
_cell_angle_beta     90
_cell_angle_gamma    120

_space_group_name_H-M_alt    "P 1"
_space_group_IT_number       1

loop_
  _space_group_symop_operation_xyz
  'x, y, z'

loop_
  _atom_site_type_symbol
  _atom_site_label
  _atom_site_symmetry_multiplicity
  _atom_site_fract_x
  _atom_site_fract_y
  _atom_site_fract_z
  _atom_site_occupancy
  Li  Li1       1.0  0.00169  0.00160  0.04868  1.0000
  Li  Li2       1.0  0.08333  0.16667  0.66667  1.0000
  Co  Co1       1.0  0.00000  0.00000  0.50000  1.0000
  Co  Co2       1.0  0.16667  0.08333  0.83333  1.0000
  Co  Co3       1.0  0.08333  0.16667  0.16667  1.0000
  O   O1        1.0  0.00000  0.00000  0.76049  1.0000
  O   O2        1.0  0.00000  0.00000  0.23951  1.0000
  O   O3        1.0  0.16667  0.08333  0.09382  1.0000
  O   O4        1.0  0.16667  0.08333  0.57284  1.0000
  O   O5        1.0  0.08333  0.16667  0.42716  1.0000
  O   O6        1.0  0.08333  0.16667  0.90618  1.0000
  Li  Li3       1.0  0.00000  0.25000  0.00000  1.0000
  Li  Li4       1.0  0.16667  0.33333  0.33333  1.0000
  Li  Li5       1.0  0.08333  0.41667  0.66667  1.0000
  Co  Co4       1.0  0.00000  0.25000  0.50000  1.0000
  Co  Co5       1.0  0.16667  0.33333  0.83333  1.0000
  Co  Co6       1.0  0.08333  0.41667  0.16667  1.0000
  O   O7        1.0  0.00000  0.25000  0.76049  1.0000
  O   O8        1.0  0.00000  0.25000  0.23951  1.0000
  O   O9        1.0  0.16667  0.33333  0.09382  1.0000
  O   O10       1.0  0.16667  0.33333  0.57284  1.0000
  O   O11       1.0  0.08333  0.41667  0.42716  1.0000
  O   O12       1.0  0.08333  0.41667  0.90618  1.0000
  Li  Li6       1.0  0.00000  0.50000  0.00000  1.0000
  Li  Li7       1.0  0.16667  0.58333  0.33333  1.0000
  Li  Li8       1.0  0.08333  0.66667  0.66667  1.0000
  Co  Co7       1.0  0.00000  0.50000  0.50000  1.0000
  Co  Co8       1.0  0.16667  0.58333  0.83333  1.0000
  Co  Co9       1.0  0.08333  0.66667  0.16667  1.0000
  O   O13       1.0  0.00000  0.50000  0.76049  1.0000
  O   O14       1.0  0.00000  0.50000  0.23951  1.0000
  O   O15       1.0  0.16667  0.58333  0.09382  1.0000
  O   O16       1.0  0.16667  0.58333  0.57284  1.0000
  O   O17       1.0  0.08333  0.66667  0.42716  1.0000
  O   O18       1.0  0.08333  0.66667  0.90618  1.0000
  Li  Li9       1.0  0.00000  0.75000  0.00000  1.0000
  Li  Li10      1.0  0.16667  0.83333  0.33333  1.0000
  Li  Li11      1.0  0.08333  0.91667  0.66667  1.0000
  Co  Co10      1.0  0.00000  0.75000  0.50000  1.0000
  Co  Co11      1.0  0.16667  0.83333  0.83333  1.0000
  Co  Co12      1.0  0.08333  0.91667  0.16667  1.0000
  O   O19       1.0  0.00000  0.75000  0.76049  1.0000
  O   O20       1.0  0.00000  0.75000  0.23951  1.0000
  O   O21       1.0  0.16667  0.83333  0.09382  1.0000
  O   O22       1.0  0.16667  0.83333  0.57284  1.0000
  O   O23       1.0  0.08333  0.91667  0.42716  1.0000
  O   O24       1.0  0.08333  0.91667  0.90618  1.0000
  Li  Li12      1.0  0.25000  0.00000  0.00000  1.0000
  Li  Li13      1.0  0.41667  0.08333  0.33333  1.0000
  Li  Li14      1.0  0.33333  0.16667  0.66667  1.0000
  Co  Co13      1.0  0.25000  0.00000  0.50000  1.0000
  Co  Co14      1.0  0.41667  0.08333  0.83333  1.0000
  Co  Co15      1.0  0.33333  0.16667  0.16667  1.0000
  O   O25       1.0  0.25000  0.00000  0.76049  1.0000
  O   O26       1.0  0.25000  0.00000  0.23951  1.0000
  O   O27       1.0  0.41667  0.08333  0.09382  1.0000
  O   O28       1.0  0.41667  0.08333  0.57284  1.0000
  O   O29       1.0  0.33333  0.16667  0.42716  1.0000
  O   O30       1.0  0.33333  0.16667  0.90618  1.0000
  Li  Li15      1.0  0.25000  0.25000  0.00000  1.0000
  Li  Li16      1.0  0.41667  0.33333  0.33333  1.0000
  Li  Li17      1.0  0.33333  0.41667  0.66667  1.0000
  Co  Co16      1.0  0.25000  0.25000  0.50000  1.0000
  Co  Co17      1.0  0.41667  0.33333  0.83333  1.0000
  Co  Co18      1.0  0.33333  0.41667  0.16667  1.0000
  O   O31       1.0  0.25000  0.25000  0.76049  1.0000
  O   O32       1.0  0.25000  0.25000  0.23951  1.0000
  O   O33       1.0  0.41667  0.33333  0.09382  1.0000
  O   O34       1.0  0.41667  0.33333  0.57284  1.0000
  O   O35       1.0  0.33333  0.41667  0.42716  1.0000
  O   O36       1.0  0.33333  0.41667  0.90618  1.0000
  Li  Li18      1.0  0.25000  0.50000  0.00000  1.0000
  Li  Li19      1.0  0.41667  0.58333  0.33333  1.0000
  Li  Li20      1.0  0.33333  0.66667  0.66667  1.0000
  Co  Co19      1.0  0.25000  0.50000  0.50000  1.0000
  Co  Co20      1.0  0.41667  0.58333  0.83333  1.0000
  Co  Co21      1.0  0.33333  0.66667  0.16667  1.0000
  O   O37       1.0  0.25000  0.50000  0.76049  1.0000
  O   O38       1.0  0.25000  0.50000  0.23951  1.0000
  O   O39       1.0  0.41667  0.58333  0.09382  1.0000
  O   O40       1.0  0.41667  0.58333  0.57284  1.0000
  O   O41       1.0  0.33333  0.66667  0.42716  1.0000
  O   O42       1.0  0.33333  0.66667  0.90618  1.0000
  Li  Li21      1.0  0.25000  0.75000  0.00000  1.0000
  Li  Li22      1.0  0.41667  0.83333  0.33333  1.0000
  Li  Li23      1.0  0.33333  0.91667  0.66667  1.0000
  Co  Co22      1.0  0.25000  0.75000  0.50000  1.0000
  Co  Co23      1.0  0.41667  0.83333  0.83333  1.0000
  Co  Co24      1.0  0.33333  0.91667  0.16667  1.0000
  O   O43       1.0  0.25000  0.75000  0.76049  1.0000
  O   O44       1.0  0.25000  0.75000  0.23951  1.0000
  O   O45       1.0  0.41667  0.83333  0.09382  1.0000
  O   O46       1.0  0.41667  0.83333  0.57284  1.0000
  O   O47       1.0  0.33333  0.91667  0.42716  1.0000
  O   O48       1.0  0.33333  0.91667  0.90618  1.0000
  Li  Li24      1.0  0.50000  0.00000  0.00000  1.0000
  Li  Li25      1.0  0.66667  0.08333  0.33333  1.0000
  Li  Li26      1.0  0.58333  0.16667  0.66667  1.0000
  Co  Co25      1.0  0.50000  0.00000  0.50000  1.0000
  Co  Co26      1.0  0.66667  0.08333  0.83333  1.0000
  Co  Co27      1.0  0.58333  0.16667  0.16667  1.0000
  O   O49       1.0  0.50000  0.00000  0.76049  1.0000
  O   O50       1.0  0.50000  0.00000  0.23951  1.0000
  O   O51       1.0  0.66667  0.08333  0.09382  1.0000
  O   O52       1.0  0.66667  0.08333  0.57284  1.0000
  O   O53       1.0  0.58333  0.16667  0.42716  1.0000
  O   O54       1.0  0.58333  0.16667  0.90618  1.0000
  Li  Li27      1.0  0.50000  0.25000  0.00000  1.0000
  Li  Li28      1.0  0.66667  0.33333  0.33333  1.0000
  Li  Li29      1.0  0.58333  0.41667  0.66667  1.0000
  Co  Co28      1.0  0.50000  0.25000  0.50000  1.0000
  Co  Co29      1.0  0.66667  0.33333  0.83333  1.0000
  Co  Co30      1.0  0.58333  0.41667  0.16667  1.0000
  O   O55       1.0  0.50000  0.25000  0.76049  1.0000
  O   O56       1.0  0.50000  0.25000  0.23951  1.0000
  O   O57       1.0  0.66667  0.33333  0.09382  1.0000
  O   O58       1.0  0.66667  0.33333  0.57284  1.0000
  O   O59       1.0  0.58333  0.41667  0.42716  1.0000
  O   O60       1.0  0.58333  0.41667  0.90618  1.0000
  Li  Li30      1.0  0.50000  0.50000  0.00000  1.0000
  Li  Li31      1.0  0.66667  0.58333  0.33333  1.0000
  Li  Li32      1.0  0.58333  0.66667  0.66667  1.0000
  Co  Co31      1.0  0.50000  0.50000  0.50000  1.0000
  Co  Co32      1.0  0.66667  0.58333  0.83333  1.0000
  Co  Co33      1.0  0.58333  0.66667  0.16667  1.0000
  O   O61       1.0  0.50000  0.50000  0.76049  1.0000
  O   O62       1.0  0.50000  0.50000  0.23951  1.0000
  O   O63       1.0  0.66667  0.58333  0.09382  1.0000
  O   O64       1.0  0.66667  0.58333  0.57284  1.0000
  O   O65       1.0  0.58333  0.66667  0.42716  1.0000
  O   O66       1.0  0.58333  0.66667  0.90618  1.0000
  Li  Li33      1.0  0.50000  0.75000  0.00000  1.0000
  Li  Li34      1.0  0.66667  0.83333  0.33333  1.0000
  Li  Li35      1.0  0.58333  0.91667  0.66667  1.0000
  Co  Co34      1.0  0.50000  0.75000  0.50000  1.0000
  Co  Co35      1.0  0.66667  0.83333  0.83333  1.0000
  Co  Co36      1.0  0.58333  0.91667  0.16667  1.0000
  O   O67       1.0  0.50000  0.75000  0.76049  1.0000
  O   O68       1.0  0.50000  0.75000  0.23951  1.0000
  O   O69       1.0  0.66667  0.83333  0.09382  1.0000
  O   O70       1.0  0.66667  0.83333  0.57284  1.0000
  O   O71       1.0  0.58333  0.91667  0.42716  1.0000
  O   O72       1.0  0.58333  0.91667  0.90618  1.0000
  Li  Li36      1.0  0.75000  0.00000  0.00000  1.0000
  Li  Li37      1.0  0.91667  0.08333  0.33333  1.0000
  Li  Li38      1.0  0.83333  0.16667  0.66667  1.0000
  Co  Co37      1.0  0.75000  0.00000  0.50000  1.0000
  Co  Co38      1.0  0.91667  0.08333  0.83333  1.0000
  Co  Co39      1.0  0.83333  0.16667  0.16667  1.0000
  O   O73       1.0  0.75000  0.00000  0.76049  1.0000
  O   O74       1.0  0.75000  0.00000  0.23951  1.0000
  O   O75       1.0  0.91667  0.08333  0.09382  1.0000
  O   O76       1.0  0.91667  0.08333  0.57284  1.0000
  O   O77       1.0  0.83333  0.16667  0.42716  1.0000
  O   O78       1.0  0.83333  0.16667  0.90618  1.0000
  Li  Li39      1.0  0.75000  0.25000  0.00000  1.0000
  Li  Li40      1.0  0.91667  0.33333  0.33333  1.0000
  Li  Li41      1.0  0.83333  0.41667  0.66667  1.0000
  Co  Co40      1.0  0.75000  0.25000  0.50000  1.0000
  Co  Co41      1.0  0.91667  0.33333  0.83333  1.0000
  Co  Co42      1.0  0.83333  0.41667  0.16667  1.0000
  O   O79       1.0  0.75000  0.25000  0.76049  1.0000
  O   O80       1.0  0.75000  0.25000  0.23951  1.0000
  O   O81       1.0  0.91667  0.33333  0.09382  1.0000
  O   O82       1.0  0.91667  0.33333  0.57284  1.0000
  O   O83       1.0  0.83333  0.41667  0.42716  1.0000
  O   O84       1.0  0.83333  0.41667  0.90618  1.0000
  Li  Li42      1.0  0.75000  0.50000  0.00000  1.0000
  Li  Li43      1.0  0.91667  0.58333  0.33333  1.0000
  Li  Li44      1.0  0.83333  0.66667  0.66667  1.0000
  Co  Co43      1.0  0.75000  0.50000  0.50000  1.0000
  Co  Co44      1.0  0.91667  0.58333  0.83333  1.0000
  Co  Co45      1.0  0.83333  0.66667  0.16667  1.0000
  O   O85       1.0  0.75000  0.50000  0.76049  1.0000
  O   O86       1.0  0.75000  0.50000  0.23951  1.0000
  O   O87       1.0  0.91667  0.58333  0.09382  1.0000
  O   O88       1.0  0.91667  0.58333  0.57284  1.0000
  O   O89       1.0  0.83333  0.66667  0.42716  1.0000
  O   O90       1.0  0.83333  0.66667  0.90618  1.0000
  Li  Li45      1.0  0.75000  0.75000  0.00000  1.0000
  Li  Li46      1.0  0.91667  0.83333  0.33333  1.0000
  Li  Li47      1.0  0.83333  0.91667  0.66667  1.0000
  Co  Co46      1.0  0.75000  0.75000  0.50000  1.0000
  Co  Co47      1.0  0.91667  0.83333  0.83333  1.0000
  Co  Co48      1.0  0.83333  0.91667  0.16667  1.0000
  O   O91       1.0  0.75000  0.75000  0.76049  1.0000
  O   O92       1.0  0.75000  0.75000  0.23951  1.0000
  O   O93       1.0  0.91667  0.83333  0.09382  1.0000
  O   O94       1.0  0.91667  0.83333  0.57284  1.0000
  O   O95       1.0  0.83333  0.91667  0.42716  1.0000
  O   O96       1.0  0.83333  0.91667  0.90618  1.0000
data_image2
_chemical_formula_structural       Li2Co3O6Li3Co3O6Li3Co3O6Li3Co3O6Li3Co3O6Li3Co3O6Li3Co3O6Li3Co3O6Li3Co3O6Li3Co3O6Li3Co3O6Li3Co3O6Li3Co3O6Li3Co3O6Li3Co3O6Li3Co3O6
_chemical_formula_sum              "Li47 Co48 O96"
_cell_length_a       11.2644
_cell_length_b       11.2644
_cell_length_c       14.0536
_cell_angle_alpha    90
_cell_angle_beta     90
_cell_angle_gamma    120

_space_group_name_H-M_alt    "P 1"
_space_group_IT_number       1

loop_
  _space_group_symop_operation_xyz
  'x, y, z'

loop_
  _atom_site_type_symbol
  _atom_site_label
  _atom_site_symmetry_multiplicity
  _atom_site_fract_x
  _atom_site_fract_y
  _atom_site_fract_z
  _atom_site_occupancy
  Li  Li1       1.0  0.00568  0.00532  0.09683  1.0000
  Li  Li2       1.0  0.08333  0.16667  0.66667  1.0000
  Co  Co1       1.0  0.00000  0.00000  0.50000  1.0000
  Co  Co2       1.0  0.16667  0.08333  0.83333  1.0000
  Co  Co3       1.0  0.08333  0.16667  0.16667  1.0000
  O   O1        1.0  0.00000  0.00000  0.76049  1.0000
  O   O2        1.0  0.00000  0.00000  0.23951  1.0000
  O   O3        1.0  0.16667  0.08333  0.09382  1.0000
  O   O4        1.0  0.16667  0.08333  0.57284  1.0000
  O   O5        1.0  0.08333  0.16667  0.42716  1.0000
  O   O6        1.0  0.08333  0.16667  0.90618  1.0000
  Li  Li3       1.0  0.00000  0.25000  0.00000  1.0000
  Li  Li4       1.0  0.16667  0.33333  0.33333  1.0000
  Li  Li5       1.0  0.08333  0.41667  0.66667  1.0000
  Co  Co4       1.0  0.00000  0.25000  0.50000  1.0000
  Co  Co5       1.0  0.16667  0.33333  0.83333  1.0000
  Co  Co6       1.0  0.08333  0.41667  0.16667  1.0000
  O   O7        1.0  0.00000  0.25000  0.76049  1.0000
  O   O8        1.0  0.00000  0.25000  0.23951  1.0000
  O   O9        1.0  0.16667  0.33333  0.09382  1.0000
  O   O10       1.0  0.16667  0.33333  0.57284  1.0000
  O   O11       1.0  0.08333  0.41667  0.42716  1.0000
  O   O12       1.0  0.08333  0.41667  0.90618  1.0000
  Li  Li6       1.0  0.00000  0.50000  0.00000  1.0000
  Li  Li7       1.0  0.16667  0.58333  0.33333  1.0000
  Li  Li8       1.0  0.08333  0.66667  0.66667  1.0000
  Co  Co7       1.0  0.00000  0.50000  0.50000  1.0000
  Co  Co8       1.0  0.16667  0.58333  0.83333  1.0000
  Co  Co9       1.0  0.08333  0.66667  0.16667  1.0000
  O   O13       1.0  0.00000  0.50000  0.76049  1.0000
  O   O14       1.0  0.00000  0.50000  0.23951  1.0000
  O   O15       1.0  0.16667  0.58333  0.09382  1.0000
  O   O16       1.0  0.16667  0.58333  0.57284  1.0000
  O   O17       1.0  0.08333  0.66667  0.42716  1.0000
  O   O18       1.0  0.08333  0.66667  0.90618  1.0000
  Li  Li9       1.0  0.00000  0.75000  0.00000  1.0000
  Li  Li10      1.0  0.16667  0.83333  0.33333  1.0000
  Li  Li11      1.0  0.08333  0.91667  0.66667  1.0000
  Co  Co10      1.0  0.00000  0.75000  0.50000  1.0000
  Co  Co11      1.0  0.16667  0.83333  0.83333  1.0000
  Co  Co12      1.0  0.08333  0.91667  0.16667  1.0000
  O   O19       1.0  0.00000  0.75000  0.76049  1.0000
  O   O20       1.0  0.00000  0.75000  0.23951  1.0000
  O   O21       1.0  0.16667  0.83333  0.09382  1.0000
  O   O22       1.0  0.16667  0.83333  0.57284  1.0000
  O   O23       1.0  0.08333  0.91667  0.42716  1.0000
  O   O24       1.0  0.08333  0.91667  0.90618  1.0000
  Li  Li12      1.0  0.25000  0.00000  0.00000  1.0000
  Li  Li13      1.0  0.41667  0.08333  0.33333  1.0000
  Li  Li14      1.0  0.33333  0.16667  0.66667  1.0000
  Co  Co13      1.0  0.25000  0.00000  0.50000  1.0000
  Co  Co14      1.0  0.41667  0.08333  0.83333  1.0000
  Co  Co15      1.0  0.33333  0.16667  0.16667  1.0000
  O   O25       1.0  0.25000  0.00000  0.76049  1.0000
  O   O26       1.0  0.25000  0.00000  0.23951  1.0000
  O   O27       1.0  0.41667  0.08333  0.09382  1.0000
  O   O28       1.0  0.41667  0.08333  0.57284  1.0000
  O   O29       1.0  0.33333  0.16667  0.42716  1.0000
  O   O30       1.0  0.33333  0.16667  0.90618  1.0000
  Li  Li15      1.0  0.25000  0.25000  0.00000  1.0000
  Li  Li16      1.0  0.41667  0.33333  0.33333  1.0000
  Li  Li17      1.0  0.33333  0.41667  0.66667  1.0000
  Co  Co16      1.0  0.25000  0.25000  0.50000  1.0000
  Co  Co17      1.0  0.41667  0.33333  0.83333  1.0000
  Co  Co18      1.0  0.33333  0.41667  0.16667  1.0000
  O   O31       1.0  0.25000  0.25000  0.76049  1.0000
  O   O32       1.0  0.25000  0.25000  0.23951  1.0000
  O   O33       1.0  0.41667  0.33333  0.09382  1.0000
  O   O34       1.0  0.41667  0.33333  0.57284  1.0000
  O   O35       1.0  0.33333  0.41667  0.42716  1.0000
  O   O36       1.0  0.33333  0.41667  0.90618  1.0000
  Li  Li18      1.0  0.25000  0.50000  0.00000  1.0000
  Li  Li19      1.0  0.41667  0.58333  0.33333  1.0000
  Li  Li20      1.0  0.33333  0.66667  0.66667  1.0000
  Co  Co19      1.0  0.25000  0.50000  0.50000  1.0000
  Co  Co20      1.0  0.41667  0.58333  0.83333  1.0000
  Co  Co21      1.0  0.33333  0.66667  0.16667  1.0000
  O   O37       1.0  0.25000  0.50000  0.76049  1.0000
  O   O38       1.0  0.25000  0.50000  0.23951  1.0000
  O   O39       1.0  0.41667  0.58333  0.09382  1.0000
  O   O40       1.0  0.41667  0.58333  0.57284  1.0000
  O   O41       1.0  0.33333  0.66667  0.42716  1.0000
  O   O42       1.0  0.33333  0.66667  0.90618  1.0000
  Li  Li21      1.0  0.25000  0.75000  0.00000  1.0000
  Li  Li22      1.0  0.41667  0.83333  0.33333  1.0000
  Li  Li23      1.0  0.33333  0.91667  0.66667  1.0000
  Co  Co22      1.0  0.25000  0.75000  0.50000  1.0000
  Co  Co23      1.0  0.41667  0.83333  0.83333  1.0000
  Co  Co24      1.0  0.33333  0.91667  0.16667  1.0000
  O   O43       1.0  0.25000  0.75000  0.76049  1.0000
  O   O44       1.0  0.25000  0.75000  0.23951  1.0000
  O   O45       1.0  0.41667  0.83333  0.09382  1.0000
  O   O46       1.0  0.41667  0.83333  0.57284  1.0000
  O   O47       1.0  0.33333  0.91667  0.42716  1.0000
  O   O48       1.0  0.33333  0.91667  0.90618  1.0000
  Li  Li24      1.0  0.50000  0.00000  0.00000  1.0000
  Li  Li25      1.0  0.66667  0.08333  0.33333  1.0000
  Li  Li26      1.0  0.58333  0.16667  0.66667  1.0000
  Co  Co25      1.0  0.50000  0.00000  0.50000  1.0000
  Co  Co26      1.0  0.66667  0.08333  0.83333  1.0000
  Co  Co27      1.0  0.58333  0.16667  0.16667  1.0000
  O   O49       1.0  0.50000  0.00000  0.76049  1.0000
  O   O50       1.0  0.50000  0.00000  0.23951  1.0000
  O   O51       1.0  0.66667  0.08333  0.09382  1.0000
  O   O52       1.0  0.66667  0.08333  0.57284  1.0000
  O   O53       1.0  0.58333  0.16667  0.42716  1.0000
  O   O54       1.0  0.58333  0.16667  0.90618  1.0000
  Li  Li27      1.0  0.50000  0.25000  0.00000  1.0000
  Li  Li28      1.0  0.66667  0.33333  0.33333  1.0000
  Li  Li29      1.0  0.58333  0.41667  0.66667  1.0000
  Co  Co28      1.0  0.50000  0.25000  0.50000  1.0000
  Co  Co29      1.0  0.66667  0.33333  0.83333  1.0000
  Co  Co30      1.0  0.58333  0.41667  0.16667  1.0000
  O   O55       1.0  0.50000  0.25000  0.76049  1.0000
  O   O56       1.0  0.50000  0.25000  0.23951  1.0000
  O   O57       1.0  0.66667  0.33333  0.09382  1.0000
  O   O58       1.0  0.66667  0.33333  0.57284  1.0000
  O   O59       1.0  0.58333  0.41667  0.42716  1.0000
  O   O60       1.0  0.58333  0.41667  0.90618  1.0000
  Li  Li30      1.0  0.50000  0.50000  0.00000  1.0000
  Li  Li31      1.0  0.66667  0.58333  0.33333  1.0000
  Li  Li32      1.0  0.58333  0.66667  0.66667  1.0000
  Co  Co31      1.0  0.50000  0.50000  0.50000  1.0000
  Co  Co32      1.0  0.66667  0.58333  0.83333  1.0000
  Co  Co33      1.0  0.58333  0.66667  0.16667  1.0000
  O   O61       1.0  0.50000  0.50000  0.76049  1.0000
  O   O62       1.0  0.50000  0.50000  0.23951  1.0000
  O   O63       1.0  0.66667  0.58333  0.09382  1.0000
  O   O64       1.0  0.66667  0.58333  0.57284  1.0000
  O   O65       1.0  0.58333  0.66667  0.42716  1.0000
  O   O66       1.0  0.58333  0.66667  0.90618  1.0000
  Li  Li33      1.0  0.50000  0.75000  0.00000  1.0000
  Li  Li34      1.0  0.66667  0.83333  0.33333  1.0000
  Li  Li35      1.0  0.58333  0.91667  0.66667  1.0000
  Co  Co34      1.0  0.50000  0.75000  0.50000  1.0000
  Co  Co35      1.0  0.66667  0.83333  0.83333  1.0000
  Co  Co36      1.0  0.58333  0.91667  0.16667  1.0000
  O   O67       1.0  0.50000  0.75000  0.76049  1.0000
  O   O68       1.0  0.50000  0.75000  0.23951  1.0000
  O   O69       1.0  0.66667  0.83333  0.09382  1.0000
  O   O70       1.0  0.66667  0.83333  0.57284  1.0000
  O   O71       1.0  0.58333  0.91667  0.42716  1.0000
  O   O72       1.0  0.58333  0.91667  0.90618  1.0000
  Li  Li36      1.0  0.75000  0.00000  0.00000  1.0000
  Li  Li37      1.0  0.91667  0.08333  0.33333  1.0000
  Li  Li38      1.0  0.83333  0.16667  0.66667  1.0000
  Co  Co37      1.0  0.75000  0.00000  0.50000  1.0000
  Co  Co38      1.0  0.91667  0.08333  0.83333  1.0000
  Co  Co39      1.0  0.83333  0.16667  0.16667  1.0000
  O   O73       1.0  0.75000  0.00000  0.76049  1.0000
  O   O74       1.0  0.75000  0.00000  0.23951  1.0000
  O   O75       1.0  0.91667  0.08333  0.09382  1.0000
  O   O76       1.0  0.91667  0.08333  0.57284  1.0000
  O   O77       1.0  0.83333  0.16667  0.42716  1.0000
  O   O78       1.0  0.83333  0.16667  0.90618  1.0000
  Li  Li39      1.0  0.75000  0.25000  0.00000  1.0000
  Li  Li40      1.0  0.91667  0.33333  0.33333  1.0000
  Li  Li41      1.0  0.83333  0.41667  0.66667  1.0000
  Co  Co40      1.0  0.75000  0.25000  0.50000  1.0000
  Co  Co41      1.0  0.91667  0.33333  0.83333  1.0000
  Co  Co42      1.0  0.83333  0.41667  0.16667  1.0000
  O   O79       1.0  0.75000  0.25000  0.76049  1.0000
  O   O80       1.0  0.75000  0.25000  0.23951  1.0000
  O   O81       1.0  0.91667  0.33333  0.09382  1.0000
  O   O82       1.0  0.91667  0.33333  0.57284  1.0000
  O   O83       1.0  0.83333  0.41667  0.42716  1.0000
  O   O84       1.0  0.83333  0.41667  0.90618  1.0000
  Li  Li42      1.0  0.75000  0.50000  0.00000  1.0000
  Li  Li43      1.0  0.91667  0.58333  0.33333  1.0000
  Li  Li44      1.0  0.83333  0.66667  0.66667  1.0000
  Co  Co43      1.0  0.75000  0.50000  0.50000  1.0000
  Co  Co44      1.0  0.91667  0.58333  0.83333  1.0000
  Co  Co45      1.0  0.83333  0.66667  0.16667  1.0000
  O   O85       1.0  0.75000  0.50000  0.76049  1.0000
  O   O86       1.0  0.75000  0.50000  0.23951  1.0000
  O   O87       1.0  0.91667  0.58333  0.09382  1.0000
  O   O88       1.0  0.91667  0.58333  0.57284  1.0000
  O   O89       1.0  0.83333  0.66667  0.42716  1.0000
  O   O90       1.0  0.83333  0.66667  0.90618  1.0000
  Li  Li45      1.0  0.75000  0.75000  0.00000  1.0000
  Li  Li46      1.0  0.91667  0.83333  0.33333  1.0000
  Li  Li47      1.0  0.83333  0.91667  0.66667  1.0000
  Co  Co46      1.0  0.75000  0.75000  0.50000  1.0000
  Co  Co47      1.0  0.91667  0.83333  0.83333  1.0000
  Co  Co48      1.0  0.83333  0.91667  0.16667  1.0000
  O   O91       1.0  0.75000  0.75000  0.76049  1.0000
  O   O92       1.0  0.75000  0.75000  0.23951  1.0000
  O   O93       1.0  0.91667  0.83333  0.09382  1.0000
  O   O94       1.0  0.91667  0.83333  0.57284  1.0000
  O   O95       1.0  0.83333  0.91667  0.42716  1.0000
  O   O96       1.0  0.83333  0.91667  0.90618  1.0000
data_image3
_chemical_formula_structural       Li2Co3O6Li3Co3O6Li3Co3O6Li3Co3O6Li3Co3O6Li3Co3O6Li3Co3O6Li3Co3O6Li3Co3O6Li3Co3O6Li3Co3O6Li3Co3O6Li3Co3O6Li3Co3O6Li3Co3O6Li3Co3O6
_chemical_formula_sum              "Li47 Co48 O96"
_cell_length_a       11.2644
_cell_length_b       11.2644
_cell_length_c       14.0536
_cell_angle_alpha    90
_cell_angle_beta     90
_cell_angle_gamma    120

_space_group_name_H-M_alt    "P 1"
_space_group_IT_number       1

loop_
  _space_group_symop_operation_xyz
  'x, y, z'

loop_
  _atom_site_type_symbol
  _atom_site_label
  _atom_site_symmetry_multiplicity
  _atom_site_fract_x
  _atom_site_fract_y
  _atom_site_fract_z
  _atom_site_occupancy
  Li  Li1       1.0  0.03576  0.03027  0.13876  1.0000
  Li  Li2       1.0  0.08333  0.16667  0.66667  1.0000
  Co  Co1       1.0  0.00000  0.00000  0.50000  1.0000
  Co  Co2       1.0  0.16667  0.08333  0.83333  1.0000
  Co  Co3       1.0  0.08333  0.16667  0.16667  1.0000
  O   O1        1.0  0.00000  0.00000  0.76049  1.0000
  O   O2        1.0  0.00000  0.00000  0.23951  1.0000
  O   O3        1.0  0.16667  0.08333  0.09382  1.0000
  O   O4        1.0  0.16667  0.08333  0.57284  1.0000
  O   O5        1.0  0.08333  0.16667  0.42716  1.0000
  O   O6        1.0  0.08333  0.16667  0.90618  1.0000
  Li  Li3       1.0  0.00000  0.25000  0.00000  1.0000
  Li  Li4       1.0  0.16667  0.33333  0.33333  1.0000
  Li  Li5       1.0  0.08333  0.41667  0.66667  1.0000
  Co  Co4       1.0  0.00000  0.25000  0.50000  1.0000
  Co  Co5       1.0  0.16667  0.33333  0.83333  1.0000
  Co  Co6       1.0  0.08333  0.41667  0.16667  1.0000
  O   O7        1.0  0.00000  0.25000  0.76049  1.0000
  O   O8        1.0  0.00000  0.25000  0.23951  1.0000
  O   O9        1.0  0.16667  0.33333  0.09382  1.0000
  O   O10       1.0  0.16667  0.33333  0.57284  1.0000
  O   O11       1.0  0.08333  0.41667  0.42716  1.0000
  O   O12       1.0  0.08333  0.41667  0.90618  1.0000
  Li  Li6       1.0  0.00000  0.50000  0.00000  1.0000
  Li  Li7       1.0  0.16667  0.58333  0.33333  1.0000
  Li  Li8       1.0  0.08333  0.66667  0.66667  1.0000
  Co  Co7       1.0  0.00000  0.50000  0.50000  1.0000
  Co  Co8       1.0  0.16667  0.58333  0.83333  1.0000
  Co  Co9       1.0  0.08333  0.66667  0.16667  1.0000
  O   O13       1.0  0.00000  0.50000  0.76049  1.0000
  O   O14       1.0  0.00000  0.50000  0.23951  1.0000
  O   O15       1.0  0.16667  0.58333  0.09382  1.0000
  O   O16       1.0  0.16667  0.58333  0.57284  1.0000
  O   O17       1.0  0.08333  0.66667  0.42716  1.0000
  O   O18       1.0  0.08333  0.66667  0.90618  1.0000
  Li  Li9       1.0  0.00000  0.75000  0.00000  1.0000
  Li  Li10      1.0  0.16667  0.83333  0.33333  1.0000
  Li  Li11      1.0  0.08333  0.91667  0.66667  1.0000
  Co  Co10      1.0  0.00000  0.75000  0.50000  1.0000
  Co  Co11      1.0  0.16667  0.83333  0.83333  1.0000
  Co  Co12      1.0  0.08333  0.91667  0.16667  1.0000
  O   O19       1.0  0.00000  0.75000  0.76049  1.0000
  O   O20       1.0  0.00000  0.75000  0.23951  1.0000
  O   O21       1.0  0.16667  0.83333  0.09382  1.0000
  O   O22       1.0  0.16667  0.83333  0.57284  1.0000
  O   O23       1.0  0.08333  0.91667  0.42716  1.0000
  O   O24       1.0  0.08333  0.91667  0.90618  1.0000
  Li  Li12      1.0  0.25000  0.00000  0.00000  1.0000
  Li  Li13      1.0  0.41667  0.08333  0.33333  1.0000
  Li  Li14      1.0  0.33333  0.16667  0.66667  1.0000
  Co  Co13      1.0  0.25000  0.00000  0.50000  1.0000
  Co  Co14      1.0  0.41667  0.08333  0.83333  1.0000
  Co  Co15      1.0  0.33333  0.16667  0.16667  1.0000
  O   O25       1.0  0.25000  0.00000  0.76049  1.0000
  O   O26       1.0  0.25000  0.00000  0.23951  1.0000
  O   O27       1.0  0.41667  0.08333  0.09382  1.0000
  O   O28       1.0  0.41667  0.08333  0.57284  1.0000
  O   O29       1.0  0.33333  0.16667  0.42716  1.0000
  O   O30       1.0  0.33333  0.16667  0.90618  1.0000
  Li  Li15      1.0  0.25000  0.25000  0.00000  1.0000
  Li  Li16      1.0  0.41667  0.33333  0.33333  1.0000
  Li  Li17      1.0  0.33333  0.41667  0.66667  1.0000
  Co  Co16      1.0  0.25000  0.25000  0.50000  1.0000
  Co  Co17      1.0  0.41667  0.33333  0.83333  1.0000
  Co  Co18      1.0  0.33333  0.41667  0.16667  1.0000
  O   O31       1.0  0.25000  0.25000  0.76049  1.0000
  O   O32       1.0  0.25000  0.25000  0.23951  1.0000
  O   O33       1.0  0.41667  0.33333  0.09382  1.0000
  O   O34       1.0  0.41667  0.33333  0.57284  1.0000
  O   O35       1.0  0.33333  0.41667  0.42716  1.0000
  O   O36       1.0  0.33333  0.41667  0.90618  1.0000
  Li  Li18      1.0  0.25000  0.50000  0.00000  1.0000
  Li  Li19      1.0  0.41667  0.58333  0.33333  1.0000
  Li  Li20      1.0  0.33333  0.66667  0.66667  1.0000
  Co  Co19      1.0  0.25000  0.50000  0.50000  1.0000
  Co  Co20      1.0  0.41667  0.58333  0.83333  1.0000
  Co  Co21      1.0  0.33333  0.66667  0.16667  1.0000
  O   O37       1.0  0.25000  0.50000  0.76049  1.0000
  O   O38       1.0  0.25000  0.50000  0.23951  1.0000
  O   O39       1.0  0.41667  0.58333  0.09382  1.0000
  O   O40       1.0  0.41667  0.58333  0.57284  1.0000
  O   O41       1.0  0.33333  0.66667  0.42716  1.0000
  O   O42       1.0  0.33333  0.66667  0.90618  1.0000
  Li  Li21      1.0  0.25000  0.75000  0.00000  1.0000
  Li  Li22      1.0  0.41667  0.83333  0.33333  1.0000
  Li  Li23      1.0  0.33333  0.91667  0.66667  1.0000
  Co  Co22      1.0  0.25000  0.75000  0.50000  1.0000
  Co  Co23      1.0  0.41667  0.83333  0.83333  1.0000
  Co  Co24      1.0  0.33333  0.91667  0.16667  1.0000
  O   O43       1.0  0.25000  0.75000  0.76049  1.0000
  O   O44       1.0  0.25000  0.75000  0.23951  1.0000
  O   O45       1.0  0.41667  0.83333  0.09382  1.0000
  O   O46       1.0  0.41667  0.83333  0.57284  1.0000
  O   O47       1.0  0.33333  0.91667  0.42716  1.0000
  O   O48       1.0  0.33333  0.91667  0.90618  1.0000
  Li  Li24      1.0  0.50000  0.00000  0.00000  1.0000
  Li  Li25      1.0  0.66667  0.08333  0.33333  1.0000
  Li  Li26      1.0  0.58333  0.16667  0.66667  1.0000
  Co  Co25      1.0  0.50000  0.00000  0.50000  1.0000
  Co  Co26      1.0  0.66667  0.08333  0.83333  1.0000
  Co  Co27      1.0  0.58333  0.16667  0.16667  1.0000
  O   O49       1.0  0.50000  0.00000  0.76049  1.0000
  O   O50       1.0  0.50000  0.00000  0.23951  1.0000
  O   O51       1.0  0.66667  0.08333  0.09382  1.0000
  O   O52       1.0  0.66667  0.08333  0.57284  1.0000
  O   O53       1.0  0.58333  0.16667  0.42716  1.0000
  O   O54       1.0  0.58333  0.16667  0.90618  1.0000
  Li  Li27      1.0  0.50000  0.25000  0.00000  1.0000
  Li  Li28      1.0  0.66667  0.33333  0.33333  1.0000
  Li  Li29      1.0  0.58333  0.41667  0.66667  1.0000
  Co  Co28      1.0  0.50000  0.25000  0.50000  1.0000
  Co  Co29      1.0  0.66667  0.33333  0.83333  1.0000
  Co  Co30      1.0  0.58333  0.41667  0.16667  1.0000
  O   O55       1.0  0.50000  0.25000  0.76049  1.0000
  O   O56       1.0  0.50000  0.25000  0.23951  1.0000
  O   O57       1.0  0.66667  0.33333  0.09382  1.0000
  O   O58       1.0  0.66667  0.33333  0.57284  1.0000
  O   O59       1.0  0.58333  0.41667  0.42716  1.0000
  O   O60       1.0  0.58333  0.41667  0.90618  1.0000
  Li  Li30      1.0  0.50000  0.50000  0.00000  1.0000
  Li  Li31      1.0  0.66667  0.58333  0.33333  1.0000
  Li  Li32      1.0  0.58333  0.66667  0.66667  1.0000
  Co  Co31      1.0  0.50000  0.50000  0.50000  1.0000
  Co  Co32      1.0  0.66667  0.58333  0.83333  1.0000
  Co  Co33      1.0  0.58333  0.66667  0.16667  1.0000
  O   O61       1.0  0.50000  0.50000  0.76049  1.0000
  O   O62       1.0  0.50000  0.50000  0.23951  1.0000
  O   O63       1.0  0.66667  0.58333  0.09382  1.0000
  O   O64       1.0  0.66667  0.58333  0.57284  1.0000
  O   O65       1.0  0.58333  0.66667  0.42716  1.0000
  O   O66       1.0  0.58333  0.66667  0.90618  1.0000
  Li  Li33      1.0  0.50000  0.75000  0.00000  1.0000
  Li  Li34      1.0  0.66667  0.83333  0.33333  1.0000
  Li  Li35      1.0  0.58333  0.91667  0.66667  1.0000
  Co  Co34      1.0  0.50000  0.75000  0.50000  1.0000
  Co  Co35      1.0  0.66667  0.83333  0.83333  1.0000
  Co  Co36      1.0  0.58333  0.91667  0.16667  1.0000
  O   O67       1.0  0.50000  0.75000  0.76049  1.0000
  O   O68       1.0  0.50000  0.75000  0.23951  1.0000
  O   O69       1.0  0.66667  0.83333  0.09382  1.0000
  O   O70       1.0  0.66667  0.83333  0.57284  1.0000
  O   O71       1.0  0.58333  0.91667  0.42716  1.0000
  O   O72       1.0  0.58333  0.91667  0.90618  1.0000
  Li  Li36      1.0  0.75000  0.00000  0.00000  1.0000
  Li  Li37      1.0  0.91667  0.08333  0.33333  1.0000
  Li  Li38      1.0  0.83333  0.16667  0.66667  1.0000
  Co  Co37      1.0  0.75000  0.00000  0.50000  1.0000
  Co  Co38      1.0  0.91667  0.08333  0.83333  1.0000
  Co  Co39      1.0  0.83333  0.16667  0.16667  1.0000
  O   O73       1.0  0.75000  0.00000  0.76049  1.0000
  O   O74       1.0  0.75000  0.00000  0.23951  1.0000
  O   O75       1.0  0.91667  0.08333  0.09382  1.0000
  O   O76       1.0  0.91667  0.08333  0.57284  1.0000
  O   O77       1.0  0.83333  0.16667  0.42716  1.0000
  O   O78       1.0  0.83333  0.16667  0.90618  1.0000
  Li  Li39      1.0  0.75000  0.25000  0.00000  1.0000
  Li  Li40      1.0  0.91667  0.33333  0.33333  1.0000
  Li  Li41      1.0  0.83333  0.41667  0.66667  1.0000
  Co  Co40      1.0  0.75000  0.25000  0.50000  1.0000
  Co  Co41      1.0  0.91667  0.33333  0.83333  1.0000
  Co  Co42      1.0  0.83333  0.41667  0.16667  1.0000
  O   O79       1.0  0.75000  0.25000  0.76049  1.0000
  O   O80       1.0  0.75000  0.25000  0.23951  1.0000
  O   O81       1.0  0.91667  0.33333  0.09382  1.0000
  O   O82       1.0  0.91667  0.33333  0.57284  1.0000
  O   O83       1.0  0.83333  0.41667  0.42716  1.0000
  O   O84       1.0  0.83333  0.41667  0.90618  1.0000
  Li  Li42      1.0  0.75000  0.50000  0.00000  1.0000
  Li  Li43      1.0  0.91667  0.58333  0.33333  1.0000
  Li  Li44      1.0  0.83333  0.66667  0.66667  1.0000
  Co  Co43      1.0  0.75000  0.50000  0.50000  1.0000
  Co  Co44      1.0  0.91667  0.58333  0.83333  1.0000
  Co  Co45      1.0  0.83333  0.66667  0.16667  1.0000
  O   O85       1.0  0.75000  0.50000  0.76049  1.0000
  O   O86       1.0  0.75000  0.50000  0.23951  1.0000
  O   O87       1.0  0.91667  0.58333  0.09382  1.0000
  O   O88       1.0  0.91667  0.58333  0.57284  1.0000
  O   O89       1.0  0.83333  0.66667  0.42716  1.0000
  O   O90       1.0  0.83333  0.66667  0.90618  1.0000
  Li  Li45      1.0  0.75000  0.75000  0.00000  1.0000
  Li  Li46      1.0  0.91667  0.83333  0.33333  1.0000
  Li  Li47      1.0  0.83333  0.91667  0.66667  1.0000
  Co  Co46      1.0  0.75000  0.75000  0.50000  1.0000
  Co  Co47      1.0  0.91667  0.83333  0.83333  1.0000
  Co  Co48      1.0  0.83333  0.91667  0.16667  1.0000
  O   O91       1.0  0.75000  0.75000  0.76049  1.0000
  O   O92       1.0  0.75000  0.75000  0.23951  1.0000
  O   O93       1.0  0.91667  0.83333  0.09382  1.0000
  O   O94       1.0  0.91667  0.83333  0.57284  1.0000
  O   O95       1.0  0.83333  0.91667  0.42716  1.0000
  O   O96       1.0  0.83333  0.91667  0.90618  1.0000
data_image4
_chemical_formula_structural       Li2Co3O6Li3Co3O6Li3Co3O6Li3Co3O6Li3Co3O6Li3Co3O6Li3Co3O6Li3Co3O6Li3Co3O6Li3Co3O6Li3Co3O6Li3Co3O6Li3Co3O6Li3Co3O6Li3Co3O6Li3Co3O6
_chemical_formula_sum              "Li47 Co48 O96"
_cell_length_a       11.2644
_cell_length_b       11.2644
_cell_length_c       14.0536
_cell_angle_alpha    90
_cell_angle_beta     90
_cell_angle_gamma    120

_space_group_name_H-M_alt    "P 1"
_space_group_IT_number       1

loop_
  _space_group_symop_operation_xyz
  'x, y, z'

loop_
  _atom_site_type_symbol
  _atom_site_label
  _atom_site_symmetry_multiplicity
  _atom_site_fract_x
  _atom_site_fract_y
  _atom_site_fract_z
  _atom_site_occupancy
  Li  Li1       1.0  0.08711  0.06061  0.16874  1.0000
  Li  Li2       1.0  0.08333  0.16667  0.66667  1.0000
  Co  Co1       1.0  0.00000  0.00000  0.50000  1.0000
  Co  Co2       1.0  0.16667  0.08333  0.83333  1.0000
  Co  Co3       1.0  0.08333  0.16667  0.16667  1.0000
  O   O1        1.0  0.00000  0.00000  0.76049  1.0000
  O   O2        1.0  0.00000  0.00000  0.23951  1.0000
  O   O3        1.0  0.16667  0.08333  0.09382  1.0000
  O   O4        1.0  0.16667  0.08333  0.57284  1.0000
  O   O5        1.0  0.08333  0.16667  0.42716  1.0000
  O   O6        1.0  0.08333  0.16667  0.90618  1.0000
  Li  Li3       1.0  0.00000  0.25000  0.00000  1.0000
  Li  Li4       1.0  0.16667  0.33333  0.33333  1.0000
  Li  Li5       1.0  0.08333  0.41667  0.66667  1.0000
  Co  Co4       1.0  0.00000  0.25000  0.50000  1.0000
  Co  Co5       1.0  0.16667  0.33333  0.83333  1.0000
  Co  Co6       1.0  0.08333  0.41667  0.16667  1.0000
  O   O7        1.0  0.00000  0.25000  0.76049  1.0000
  O   O8        1.0  0.00000  0.25000  0.23951  1.0000
  O   O9        1.0  0.16667  0.33333  0.09382  1.0000
  O   O10       1.0  0.16667  0.33333  0.57284  1.0000
  O   O11       1.0  0.08333  0.41667  0.42716  1.0000
  O   O12       1.0  0.08333  0.41667  0.90618  1.0000
  Li  Li6       1.0  0.00000  0.50000  0.00000  1.0000
  Li  Li7       1.0  0.16667  0.58333  0.33333  1.0000
  Li  Li8       1.0  0.08333  0.66667  0.66667  1.0000
  Co  Co7       1.0  0.00000  0.50000  0.50000  1.0000
  Co  Co8       1.0  0.16667  0.58333  0.83333  1.0000
  Co  Co9       1.0  0.08333  0.66667  0.16667  1.0000
  O   O13       1.0  0.00000  0.50000  0.76049  1.0000
  O   O14       1.0  0.00000  0.50000  0.23951  1.0000
  O   O15       1.0  0.16667  0.58333  0.09382  1.0000
  O   O16       1.0  0.16667  0.58333  0.57284  1.0000
  O   O17       1.0  0.08333  0.66667  0.42716  1.0000
  O   O18       1.0  0.08333  0.66667  0.90618  1.0000
  Li  Li9       1.0  0.00000  0.75000  0.00000  1.0000
  Li  Li10      1.0  0.16667  0.83333  0.33333  1.0000
  Li  Li11      1.0  0.08333  0.91667  0.66667  1.0000
  Co  Co10      1.0  0.00000  0.75000  0.50000  1.0000
  Co  Co11      1.0  0.16667  0.83333  0.83333  1.0000
  Co  Co12      1.0  0.08333  0.91667  0.16667  1.0000
  O   O19       1.0  0.00000  0.75000  0.76049  1.0000
  O   O20       1.0  0.00000  0.75000  0.23951  1.0000
  O   O21       1.0  0.16667  0.83333  0.09382  1.0000
  O   O22       1.0  0.16667  0.83333  0.57284  1.0000
  O   O23       1.0  0.08333  0.91667  0.42716  1.0000
  O   O24       1.0  0.08333  0.91667  0.90618  1.0000
  Li  Li12      1.0  0.25000  0.00000  0.00000  1.0000
  Li  Li13      1.0  0.41667  0.08333  0.33333  1.0000
  Li  Li14      1.0  0.33333  0.16667  0.66667  1.0000
  Co  Co13      1.0  0.25000  0.00000  0.50000  1.0000
  Co  Co14      1.0  0.41667  0.08333  0.83333  1.0000
  Co  Co15      1.0  0.33333  0.16667  0.16667  1.0000
  O   O25       1.0  0.25000  0.00000  0.76049  1.0000
  O   O26       1.0  0.25000  0.00000  0.23951  1.0000
  O   O27       1.0  0.41667  0.08333  0.09382  1.0000
  O   O28       1.0  0.41667  0.08333  0.57284  1.0000
  O   O29       1.0  0.33333  0.16667  0.42716  1.0000
  O   O30       1.0  0.33333  0.16667  0.90618  1.0000
  Li  Li15      1.0  0.25000  0.25000  0.00000  1.0000
  Li  Li16      1.0  0.41667  0.33333  0.33333  1.0000
  Li  Li17      1.0  0.33333  0.41667  0.66667  1.0000
  Co  Co16      1.0  0.25000  0.25000  0.50000  1.0000
  Co  Co17      1.0  0.41667  0.33333  0.83333  1.0000
  Co  Co18      1.0  0.33333  0.41667  0.16667  1.0000
  O   O31       1.0  0.25000  0.25000  0.76049  1.0000
  O   O32       1.0  0.25000  0.25000  0.23951  1.0000
  O   O33       1.0  0.41667  0.33333  0.09382  1.0000
  O   O34       1.0  0.41667  0.33333  0.57284  1.0000
  O   O35       1.0  0.33333  0.41667  0.42716  1.0000
  O   O36       1.0  0.33333  0.41667  0.90618  1.0000
  Li  Li18      1.0  0.25000  0.50000  0.00000  1.0000
  Li  Li19      1.0  0.41667  0.58333  0.33333  1.0000
  Li  Li20      1.0  0.33333  0.66667  0.66667  1.0000
  Co  Co19      1.0  0.25000  0.50000  0.50000  1.0000
  Co  Co20      1.0  0.41667  0.58333  0.83333  1.0000
  Co  Co21      1.0  0.33333  0.66667  0.16667  1.0000
  O   O37       1.0  0.25000  0.50000  0.76049  1.0000
  O   O38       1.0  0.25000  0.50000  0.23951  1.0000
  O   O39       1.0  0.41667  0.58333  0.09382  1.0000
  O   O40       1.0  0.41667  0.58333  0.57284  1.0000
  O   O41       1.0  0.33333  0.66667  0.42716  1.0000
  O   O42       1.0  0.33333  0.66667  0.90618  1.0000
  Li  Li21      1.0  0.25000  0.75000  0.00000  1.0000
  Li  Li22      1.0  0.41667  0.83333  0.33333  1.0000
  Li  Li23      1.0  0.33333  0.91667  0.66667  1.0000
  Co  Co22      1.0  0.25000  0.75000  0.50000  1.0000
  Co  Co23      1.0  0.41667  0.83333  0.83333  1.0000
  Co  Co24      1.0  0.33333  0.91667  0.16667  1.0000
  O   O43       1.0  0.25000  0.75000  0.76049  1.0000
  O   O44       1.0  0.25000  0.75000  0.23951  1.0000
  O   O45       1.0  0.41667  0.83333  0.09382  1.0000
  O   O46       1.0  0.41667  0.83333  0.57284  1.0000
  O   O47       1.0  0.33333  0.91667  0.42716  1.0000
  O   O48       1.0  0.33333  0.91667  0.90618  1.0000
  Li  Li24      1.0  0.50000  0.00000  0.00000  1.0000
  Li  Li25      1.0  0.66667  0.08333  0.33333  1.0000
  Li  Li26      1.0  0.58333  0.16667  0.66667  1.0000
  Co  Co25      1.0  0.50000  0.00000  0.50000  1.0000
  Co  Co26      1.0  0.66667  0.08333  0.83333  1.0000
  Co  Co27      1.0  0.58333  0.16667  0.16667  1.0000
  O   O49       1.0  0.50000  0.00000  0.76049  1.0000
  O   O50       1.0  0.50000  0.00000  0.23951  1.0000
  O   O51       1.0  0.66667  0.08333  0.09382  1.0000
  O   O52       1.0  0.66667  0.08333  0.57284  1.0000
  O   O53       1.0  0.58333  0.16667  0.42716  1.0000
  O   O54       1.0  0.58333  0.16667  0.90618  1.0000
  Li  Li27      1.0  0.50000  0.25000  0.00000  1.0000
  Li  Li28      1.0  0.66667  0.33333  0.33333  1.0000
  Li  Li29      1.0  0.58333  0.41667  0.66667  1.0000
  Co  Co28      1.0  0.50000  0.25000  0.50000  1.0000
  Co  Co29      1.0  0.66667  0.33333  0.83333  1.0000
  Co  Co30      1.0  0.58333  0.41667  0.16667  1.0000
  O   O55       1.0  0.50000  0.25000  0.76049  1.0000
  O   O56       1.0  0.50000  0.25000  0.23951  1.0000
  O   O57       1.0  0.66667  0.33333  0.09382  1.0000
  O   O58       1.0  0.66667  0.33333  0.57284  1.0000
  O   O59       1.0  0.58333  0.41667  0.42716  1.0000
  O   O60       1.0  0.58333  0.41667  0.90618  1.0000
  Li  Li30      1.0  0.50000  0.50000  0.00000  1.0000
  Li  Li31      1.0  0.66667  0.58333  0.33333  1.0000
  Li  Li32      1.0  0.58333  0.66667  0.66667  1.0000
  Co  Co31      1.0  0.50000  0.50000  0.50000  1.0000
  Co  Co32      1.0  0.66667  0.58333  0.83333  1.0000
  Co  Co33      1.0  0.58333  0.66667  0.16667  1.0000
  O   O61       1.0  0.50000  0.50000  0.76049  1.0000
  O   O62       1.0  0.50000  0.50000  0.23951  1.0000
  O   O63       1.0  0.66667  0.58333  0.09382  1.0000
  O   O64       1.0  0.66667  0.58333  0.57284  1.0000
  O   O65       1.0  0.58333  0.66667  0.42716  1.0000
  O   O66       1.0  0.58333  0.66667  0.90618  1.0000
  Li  Li33      1.0  0.50000  0.75000  0.00000  1.0000
  Li  Li34      1.0  0.66667  0.83333  0.33333  1.0000
  Li  Li35      1.0  0.58333  0.91667  0.66667  1.0000
  Co  Co34      1.0  0.50000  0.75000  0.50000  1.0000
  Co  Co35      1.0  0.66667  0.83333  0.83333  1.0000
  Co  Co36      1.0  0.58333  0.91667  0.16667  1.0000
  O   O67       1.0  0.50000  0.75000  0.76049  1.0000
  O   O68       1.0  0.50000  0.75000  0.23951  1.0000
  O   O69       1.0  0.66667  0.83333  0.09382  1.0000
  O   O70       1.0  0.66667  0.83333  0.57284  1.0000
  O   O71       1.0  0.58333  0.91667  0.42716  1.0000
  O   O72       1.0  0.58333  0.91667  0.90618  1.0000
  Li  Li36      1.0  0.75000  0.00000  0.00000  1.0000
  Li  Li37      1.0  0.91667  0.08333  0.33333  1.0000
  Li  Li38      1.0  0.83333  0.16667  0.66667  1.0000
  Co  Co37      1.0  0.75000  0.00000  0.50000  1.0000
  Co  Co38      1.0  0.91667  0.08333  0.83333  1.0000
  Co  Co39      1.0  0.83333  0.16667  0.16667  1.0000
  O   O73       1.0  0.75000  0.00000  0.76049  1.0000
  O   O74       1.0  0.75000  0.00000  0.23951  1.0000
  O   O75       1.0  0.91667  0.08333  0.09382  1.0000
  O   O76       1.0  0.91667  0.08333  0.57284  1.0000
  O   O77       1.0  0.83333  0.16667  0.42716  1.0000
  O   O78       1.0  0.83333  0.16667  0.90618  1.0000
  Li  Li39      1.0  0.75000  0.25000  0.00000  1.0000
  Li  Li40      1.0  0.91667  0.33333  0.33333  1.0000
  Li  Li41      1.0  0.83333  0.41667  0.66667  1.0000
  Co  Co40      1.0  0.75000  0.25000  0.50000  1.0000
  Co  Co41      1.0  0.91667  0.33333  0.83333  1.0000
  Co  Co42      1.0  0.83333  0.41667  0.16667  1.0000
  O   O79       1.0  0.75000  0.25000  0.76049  1.0000
  O   O80       1.0  0.75000  0.25000  0.23951  1.0000
  O   O81       1.0  0.91667  0.33333  0.09382  1.0000
  O   O82       1.0  0.91667  0.33333  0.57284  1.0000
  O   O83       1.0  0.83333  0.41667  0.42716  1.0000
  O   O84       1.0  0.83333  0.41667  0.90618  1.0000
  Li  Li42      1.0  0.75000  0.50000  0.00000  1.0000
  Li  Li43      1.0  0.91667  0.58333  0.33333  1.0000
  Li  Li44      1.0  0.83333  0.66667  0.66667  1.0000
  Co  Co43      1.0  0.75000  0.50000  0.50000  1.0000
  Co  Co44      1.0  0.91667  0.58333  0.83333  1.0000
  Co  Co45      1.0  0.83333  0.66667  0.16667  1.0000
  O   O85       1.0  0.75000  0.50000  0.76049  1.0000
  O   O86       1.0  0.75000  0.50000  0.23951  1.0000
  O   O87       1.0  0.91667  0.58333  0.09382  1.0000
  O   O88       1.0  0.91667  0.58333  0.57284  1.0000
  O   O89       1.0  0.83333  0.66667  0.42716  1.0000
  O   O90       1.0  0.83333  0.66667  0.90618  1.0000
  Li  Li45      1.0  0.75000  0.75000  0.00000  1.0000
  Li  Li46      1.0  0.91667  0.83333  0.33333  1.0000
  Li  Li47      1.0  0.83333  0.91667  0.66667  1.0000
  Co  Co46      1.0  0.75000  0.75000  0.50000  1.0000
  Co  Co47      1.0  0.91667  0.83333  0.83333  1.0000
  Co  Co48      1.0  0.83333  0.91667  0.16667  1.0000
  O   O91       1.0  0.75000  0.75000  0.76049  1.0000
  O   O92       1.0  0.75000  0.75000  0.23951  1.0000
  O   O93       1.0  0.91667  0.83333  0.09382  1.0000
  O   O94       1.0  0.91667  0.83333  0.57284  1.0000
  O   O95       1.0  0.83333  0.91667  0.42716  1.0000
  O   O96       1.0  0.83333  0.91667  0.90618  1.0000
data_image5
_chemical_formula_structural       Li2Co3O6Li3Co3O6Li3Co3O6Li3Co3O6Li3Co3O6Li3Co3O6Li3Co3O6Li3Co3O6Li3Co3O6Li3Co3O6Li3Co3O6Li3Co3O6Li3Co3O6Li3Co3O6Li3Co3O6Li3Co3O6
_chemical_formula_sum              "Li47 Co48 O96"
_cell_length_a       11.2644
_cell_length_b       11.2644
_cell_length_c       14.0536
_cell_angle_alpha    90
_cell_angle_beta     90
_cell_angle_gamma    120

_space_group_name_H-M_alt    "P 1"
_space_group_IT_number       1

loop_
  _space_group_symop_operation_xyz
  'x, y, z'

loop_
  _atom_site_type_symbol
  _atom_site_label
  _atom_site_symmetry_multiplicity
  _atom_site_fract_x
  _atom_site_fract_y
  _atom_site_fract_z
  _atom_site_occupancy
  Li  Li1       1.0  0.13713  0.07952  0.19883  1.0000
  Li  Li2       1.0  0.08333  0.16667  0.66667  1.0000
  Co  Co1       1.0  0.00000  0.00000  0.50000  1.0000
  Co  Co2       1.0  0.16667  0.08333  0.83333  1.0000
  Co  Co3       1.0  0.08333  0.16667  0.16667  1.0000
  O   O1        1.0  0.00000  0.00000  0.76049  1.0000
  O   O2        1.0  0.00000  0.00000  0.23951  1.0000
  O   O3        1.0  0.16667  0.08333  0.09382  1.0000
  O   O4        1.0  0.16667  0.08333  0.57284  1.0000
  O   O5        1.0  0.08333  0.16667  0.42716  1.0000
  O   O6        1.0  0.08333  0.16667  0.90618  1.0000
  Li  Li3       1.0  0.00000  0.25000  0.00000  1.0000
  Li  Li4       1.0  0.16667  0.33333  0.33333  1.0000
  Li  Li5       1.0  0.08333  0.41667  0.66667  1.0000
  Co  Co4       1.0  0.00000  0.25000  0.50000  1.0000
  Co  Co5       1.0  0.16667  0.33333  0.83333  1.0000
  Co  Co6       1.0  0.08333  0.41667  0.16667  1.0000
  O   O7        1.0  0.00000  0.25000  0.76049  1.0000
  O   O8        1.0  0.00000  0.25000  0.23951  1.0000
  O   O9        1.0  0.16667  0.33333  0.09382  1.0000
  O   O10       1.0  0.16667  0.33333  0.57284  1.0000
  O   O11       1.0  0.08333  0.41667  0.42716  1.0000
  O   O12       1.0  0.08333  0.41667  0.90618  1.0000
  Li  Li6       1.0  0.00000  0.50000  0.00000  1.0000
  Li  Li7       1.0  0.16667  0.58333  0.33333  1.0000
  Li  Li8       1.0  0.08333  0.66667  0.66667  1.0000
  Co  Co7       1.0  0.00000  0.50000  0.50000  1.0000
  Co  Co8       1.0  0.16667  0.58333  0.83333  1.0000
  Co  Co9       1.0  0.08333  0.66667  0.16667  1.0000
  O   O13       1.0  0.00000  0.50000  0.76049  1.0000
  O   O14       1.0  0.00000  0.50000  0.23951  1.0000
  O   O15       1.0  0.16667  0.58333  0.09382  1.0000
  O   O16       1.0  0.16667  0.58333  0.57284  1.0000
  O   O17       1.0  0.08333  0.66667  0.42716  1.0000
  O   O18       1.0  0.08333  0.66667  0.90618  1.0000
  Li  Li9       1.0  0.00000  0.75000  0.00000  1.0000
  Li  Li10      1.0  0.16667  0.83333  0.33333  1.0000
  Li  Li11      1.0  0.08333  0.91667  0.66667  1.0000
  Co  Co10      1.0  0.00000  0.75000  0.50000  1.0000
  Co  Co11      1.0  0.16667  0.83333  0.83333  1.0000
  Co  Co12      1.0  0.08333  0.91667  0.16667  1.0000
  O   O19       1.0  0.00000  0.75000  0.76049  1.0000
  O   O20       1.0  0.00000  0.75000  0.23951  1.0000
  O   O21       1.0  0.16667  0.83333  0.09382  1.0000
  O   O22       1.0  0.16667  0.83333  0.57284  1.0000
  O   O23       1.0  0.08333  0.91667  0.42716  1.0000
  O   O24       1.0  0.08333  0.91667  0.90618  1.0000
  Li  Li12      1.0  0.25000  0.00000  0.00000  1.0000
  Li  Li13      1.0  0.41667  0.08333  0.33333  1.0000
  Li  Li14      1.0  0.33333  0.16667  0.66667  1.0000
  Co  Co13      1.0  0.25000  0.00000  0.50000  1.0000
  Co  Co14      1.0  0.41667  0.08333  0.83333  1.0000
  Co  Co15      1.0  0.33333  0.16667  0.16667  1.0000
  O   O25       1.0  0.25000  0.00000  0.76049  1.0000
  O   O26       1.0  0.25000  0.00000  0.23951  1.0000
  O   O27       1.0  0.41667  0.08333  0.09382  1.0000
  O   O28       1.0  0.41667  0.08333  0.57284  1.0000
  O   O29       1.0  0.33333  0.16667  0.42716  1.0000
  O   O30       1.0  0.33333  0.16667  0.90618  1.0000
  Li  Li15      1.0  0.25000  0.25000  0.00000  1.0000
  Li  Li16      1.0  0.41667  0.33333  0.33333  1.0000
  Li  Li17      1.0  0.33333  0.41667  0.66667  1.0000
  Co  Co16      1.0  0.25000  0.25000  0.50000  1.0000
  Co  Co17      1.0  0.41667  0.33333  0.83333  1.0000
  Co  Co18      1.0  0.33333  0.41667  0.16667  1.0000
  O   O31       1.0  0.25000  0.25000  0.76049  1.0000
  O   O32       1.0  0.25000  0.25000  0.23951  1.0000
  O   O33       1.0  0.41667  0.33333  0.09382  1.0000
  O   O34       1.0  0.41667  0.33333  0.57284  1.0000
  O   O35       1.0  0.33333  0.41667  0.42716  1.0000
  O   O36       1.0  0.33333  0.41667  0.90618  1.0000
  Li  Li18      1.0  0.25000  0.50000  0.00000  1.0000
  Li  Li19      1.0  0.41667  0.58333  0.33333  1.0000
  Li  Li20      1.0  0.33333  0.66667  0.66667  1.0000
  Co  Co19      1.0  0.25000  0.50000  0.50000  1.0000
  Co  Co20      1.0  0.41667  0.58333  0.83333  1.0000
  Co  Co21      1.0  0.33333  0.66667  0.16667  1.0000
  O   O37       1.0  0.25000  0.50000  0.76049  1.0000
  O   O38       1.0  0.25000  0.50000  0.23951  1.0000
  O   O39       1.0  0.41667  0.58333  0.09382  1.0000
  O   O40       1.0  0.41667  0.58333  0.57284  1.0000
  O   O41       1.0  0.33333  0.66667  0.42716  1.0000
  O   O42       1.0  0.33333  0.66667  0.90618  1.0000
  Li  Li21      1.0  0.25000  0.75000  0.00000  1.0000
  Li  Li22      1.0  0.41667  0.83333  0.33333  1.0000
  Li  Li23      1.0  0.33333  0.91667  0.66667  1.0000
  Co  Co22      1.0  0.25000  0.75000  0.50000  1.0000
  Co  Co23      1.0  0.41667  0.83333  0.83333  1.0000
  Co  Co24      1.0  0.33333  0.91667  0.16667  1.0000
  O   O43       1.0  0.25000  0.75000  0.76049  1.0000
  O   O44       1.0  0.25000  0.75000  0.23951  1.0000
  O   O45       1.0  0.41667  0.83333  0.09382  1.0000
  O   O46       1.0  0.41667  0.83333  0.57284  1.0000
  O   O47       1.0  0.33333  0.91667  0.42716  1.0000
  O   O48       1.0  0.33333  0.91667  0.90618  1.0000
  Li  Li24      1.0  0.50000  0.00000  0.00000  1.0000
  Li  Li25      1.0  0.66667  0.08333  0.33333  1.0000
  Li  Li26      1.0  0.58333  0.16667  0.66667  1.0000
  Co  Co25      1.0  0.50000  0.00000  0.50000  1.0000
  Co  Co26      1.0  0.66667  0.08333  0.83333  1.0000
  Co  Co27      1.0  0.58333  0.16667  0.16667  1.0000
  O   O49       1.0  0.50000  0.00000  0.76049  1.0000
  O   O50       1.0  0.50000  0.00000  0.23951  1.0000
  O   O51       1.0  0.66667  0.08333  0.09382  1.0000
  O   O52       1.0  0.66667  0.08333  0.57284  1.0000
  O   O53       1.0  0.58333  0.16667  0.42716  1.0000
  O   O54       1.0  0.58333  0.16667  0.90618  1.0000
  Li  Li27      1.0  0.50000  0.25000  0.00000  1.0000
  Li  Li28      1.0  0.66667  0.33333  0.33333  1.0000
  Li  Li29      1.0  0.58333  0.41667  0.66667  1.0000
  Co  Co28      1.0  0.50000  0.25000  0.50000  1.0000
  Co  Co29      1.0  0.66667  0.33333  0.83333  1.0000
  Co  Co30      1.0  0.58333  0.41667  0.16667  1.0000
  O   O55       1.0  0.50000  0.25000  0.76049  1.0000
  O   O56       1.0  0.50000  0.25000  0.23951  1.0000
  O   O57       1.0  0.66667  0.33333  0.09382  1.0000
  O   O58       1.0  0.66667  0.33333  0.57284  1.0000
  O   O59       1.0  0.58333  0.41667  0.42716  1.0000
  O   O60       1.0  0.58333  0.41667  0.90618  1.0000
  Li  Li30      1.0  0.50000  0.50000  0.00000  1.0000
  Li  Li31      1.0  0.66667  0.58333  0.33333  1.0000
  Li  Li32      1.0  0.58333  0.66667  0.66667  1.0000
  Co  Co31      1.0  0.50000  0.50000  0.50000  1.0000
  Co  Co32      1.0  0.66667  0.58333  0.83333  1.0000
  Co  Co33      1.0  0.58333  0.66667  0.16667  1.0000
  O   O61       1.0  0.50000  0.50000  0.76049  1.0000
  O   O62       1.0  0.50000  0.50000  0.23951  1.0000
  O   O63       1.0  0.66667  0.58333  0.09382  1.0000
  O   O64       1.0  0.66667  0.58333  0.57284  1.0000
  O   O65       1.0  0.58333  0.66667  0.42716  1.0000
  O   O66       1.0  0.58333  0.66667  0.90618  1.0000
  Li  Li33      1.0  0.50000  0.75000  0.00000  1.0000
  Li  Li34      1.0  0.66667  0.83333  0.33333  1.0000
  Li  Li35      1.0  0.58333  0.91667  0.66667  1.0000
  Co  Co34      1.0  0.50000  0.75000  0.50000  1.0000
  Co  Co35      1.0  0.66667  0.83333  0.83333  1.0000
  Co  Co36      1.0  0.58333  0.91667  0.16667  1.0000
  O   O67       1.0  0.50000  0.75000  0.76049  1.0000
  O   O68       1.0  0.50000  0.75000  0.23951  1.0000
  O   O69       1.0  0.66667  0.83333  0.09382  1.0000
  O   O70       1.0  0.66667  0.83333  0.57284  1.0000
  O   O71       1.0  0.58333  0.91667  0.42716  1.0000
  O   O72       1.0  0.58333  0.91667  0.90618  1.0000
  Li  Li36      1.0  0.75000  0.00000  0.00000  1.0000
  Li  Li37      1.0  0.91667  0.08333  0.33333  1.0000
  Li  Li38      1.0  0.83333  0.16667  0.66667  1.0000
  Co  Co37      1.0  0.75000  0.00000  0.50000  1.0000
  Co  Co38      1.0  0.91667  0.08333  0.83333  1.0000
  Co  Co39      1.0  0.83333  0.16667  0.16667  1.0000
  O   O73       1.0  0.75000  0.00000  0.76049  1.0000
  O   O74       1.0  0.75000  0.00000  0.23951  1.0000
  O   O75       1.0  0.91667  0.08333  0.09382  1.0000
  O   O76       1.0  0.91667  0.08333  0.57284  1.0000
  O   O77       1.0  0.83333  0.16667  0.42716  1.0000
  O   O78       1.0  0.83333  0.16667  0.90618  1.0000
  Li  Li39      1.0  0.75000  0.25000  0.00000  1.0000
  Li  Li40      1.0  0.91667  0.33333  0.33333  1.0000
  Li  Li41      1.0  0.83333  0.41667  0.66667  1.0000
  Co  Co40      1.0  0.75000  0.25000  0.50000  1.0000
  Co  Co41      1.0  0.91667  0.33333  0.83333  1.0000
  Co  Co42      1.0  0.83333  0.41667  0.16667  1.0000
  O   O79       1.0  0.75000  0.25000  0.76049  1.0000
  O   O80       1.0  0.75000  0.25000  0.23951  1.0000
  O   O81       1.0  0.91667  0.33333  0.09382  1.0000
  O   O82       1.0  0.91667  0.33333  0.57284  1.0000
  O   O83       1.0  0.83333  0.41667  0.42716  1.0000
  O   O84       1.0  0.83333  0.41667  0.90618  1.0000
  Li  Li42      1.0  0.75000  0.50000  0.00000  1.0000
  Li  Li43      1.0  0.91667  0.58333  0.33333  1.0000
  Li  Li44      1.0  0.83333  0.66667  0.66667  1.0000
  Co  Co43      1.0  0.75000  0.50000  0.50000  1.0000
  Co  Co44      1.0  0.91667  0.58333  0.83333  1.0000
  Co  Co45      1.0  0.83333  0.66667  0.16667  1.0000
  O   O85       1.0  0.75000  0.50000  0.76049  1.0000
  O   O86       1.0  0.75000  0.50000  0.23951  1.0000
  O   O87       1.0  0.91667  0.58333  0.09382  1.0000
  O   O88       1.0  0.91667  0.58333  0.57284  1.0000
  O   O89       1.0  0.83333  0.66667  0.42716  1.0000
  O   O90       1.0  0.83333  0.66667  0.90618  1.0000
  Li  Li45      1.0  0.75000  0.75000  0.00000  1.0000
  Li  Li46      1.0  0.91667  0.83333  0.33333  1.0000
  Li  Li47      1.0  0.83333  0.91667  0.66667  1.0000
  Co  Co46      1.0  0.75000  0.75000  0.50000  1.0000
  Co  Co47      1.0  0.91667  0.83333  0.83333  1.0000
  Co  Co48      1.0  0.83333  0.91667  0.16667  1.0000
  O   O91       1.0  0.75000  0.75000  0.76049  1.0000
  O   O92       1.0  0.75000  0.75000  0.23951  1.0000
  O   O93       1.0  0.91667  0.83333  0.09382  1.0000
  O   O94       1.0  0.91667  0.83333  0.57284  1.0000
  O   O95       1.0  0.83333  0.91667  0.42716  1.0000
  O   O96       1.0  0.83333  0.91667  0.90618  1.0000
data_image6
_chemical_formula_structural       Li2Co3O6Li3Co3O6Li3Co3O6Li3Co3O6Li3Co3O6Li3Co3O6Li3Co3O6Li3Co3O6Li3Co3O6Li3Co3O6Li3Co3O6Li3Co3O6Li3Co3O6Li3Co3O6Li3Co3O6Li3Co3O6
_chemical_formula_sum              "Li47 Co48 O96"
_cell_length_a       11.2644
_cell_length_b       11.2644
_cell_length_c       14.0536
_cell_angle_alpha    90
_cell_angle_beta     90
_cell_angle_gamma    120

_space_group_name_H-M_alt    "P 1"
_space_group_IT_number       1

loop_
  _space_group_symop_operation_xyz
  'x, y, z'

loop_
  _atom_site_type_symbol
  _atom_site_label
  _atom_site_symmetry_multiplicity
  _atom_site_fract_x
  _atom_site_fract_y
  _atom_site_fract_z
  _atom_site_occupancy
  Li  Li1       1.0  0.16165  0.08309  0.24110  1.0000
  Li  Li2       1.0  0.08333  0.16667  0.66667  1.0000
  Co  Co1       1.0  0.00000  0.00000  0.50000  1.0000
  Co  Co2       1.0  0.16667  0.08333  0.83333  1.0000
  Co  Co3       1.0  0.08333  0.16667  0.16667  1.0000
  O   O1        1.0  0.00000  0.00000  0.76049  1.0000
  O   O2        1.0  0.00000  0.00000  0.23951  1.0000
  O   O3        1.0  0.16667  0.08333  0.09382  1.0000
  O   O4        1.0  0.16667  0.08333  0.57284  1.0000
  O   O5        1.0  0.08333  0.16667  0.42716  1.0000
  O   O6        1.0  0.08333  0.16667  0.90618  1.0000
  Li  Li3       1.0  0.00000  0.25000  0.00000  1.0000
  Li  Li4       1.0  0.16667  0.33333  0.33333  1.0000
  Li  Li5       1.0  0.08333  0.41667  0.66667  1.0000
  Co  Co4       1.0  0.00000  0.25000  0.50000  1.0000
  Co  Co5       1.0  0.16667  0.33333  0.83333  1.0000
  Co  Co6       1.0  0.08333  0.41667  0.16667  1.0000
  O   O7        1.0  0.00000  0.25000  0.76049  1.0000
  O   O8        1.0  0.00000  0.25000  0.23951  1.0000
  O   O9        1.0  0.16667  0.33333  0.09382  1.0000
  O   O10       1.0  0.16667  0.33333  0.57284  1.0000
  O   O11       1.0  0.08333  0.41667  0.42716  1.0000
  O   O12       1.0  0.08333  0.41667  0.90618  1.0000
  Li  Li6       1.0  0.00000  0.50000  0.00000  1.0000
  Li  Li7       1.0  0.16667  0.58333  0.33333  1.0000
  Li  Li8       1.0  0.08333  0.66667  0.66667  1.0000
  Co  Co7       1.0  0.00000  0.50000  0.50000  1.0000
  Co  Co8       1.0  0.16667  0.58333  0.83333  1.0000
  Co  Co9       1.0  0.08333  0.66667  0.16667  1.0000
  O   O13       1.0  0.00000  0.50000  0.76049  1.0000
  O   O14       1.0  0.00000  0.50000  0.23951  1.0000
  O   O15       1.0  0.16667  0.58333  0.09382  1.0000
  O   O16       1.0  0.16667  0.58333  0.57284  1.0000
  O   O17       1.0  0.08333  0.66667  0.42716  1.0000
  O   O18       1.0  0.08333  0.66667  0.90618  1.0000
  Li  Li9       1.0  0.00000  0.75000  0.00000  1.0000
  Li  Li10      1.0  0.16667  0.83333  0.33333  1.0000
  Li  Li11      1.0  0.08333  0.91667  0.66667  1.0000
  Co  Co10      1.0  0.00000  0.75000  0.50000  1.0000
  Co  Co11      1.0  0.16667  0.83333  0.83333  1.0000
  Co  Co12      1.0  0.08333  0.91667  0.16667  1.0000
  O   O19       1.0  0.00000  0.75000  0.76049  1.0000
  O   O20       1.0  0.00000  0.75000  0.23951  1.0000
  O   O21       1.0  0.16667  0.83333  0.09382  1.0000
  O   O22       1.0  0.16667  0.83333  0.57284  1.0000
  O   O23       1.0  0.08333  0.91667  0.42716  1.0000
  O   O24       1.0  0.08333  0.91667  0.90618  1.0000
  Li  Li12      1.0  0.25000  0.00000  0.00000  1.0000
  Li  Li13      1.0  0.41667  0.08333  0.33333  1.0000
  Li  Li14      1.0  0.33333  0.16667  0.66667  1.0000
  Co  Co13      1.0  0.25000  0.00000  0.50000  1.0000
  Co  Co14      1.0  0.41667  0.08333  0.83333  1.0000
  Co  Co15      1.0  0.33333  0.16667  0.16667  1.0000
  O   O25       1.0  0.25000  0.00000  0.76049  1.0000
  O   O26       1.0  0.25000  0.00000  0.23951  1.0000
  O   O27       1.0  0.41667  0.08333  0.09382  1.0000
  O   O28       1.0  0.41667  0.08333  0.57284  1.0000
  O   O29       1.0  0.33333  0.16667  0.42716  1.0000
  O   O30       1.0  0.33333  0.16667  0.90618  1.0000
  Li  Li15      1.0  0.25000  0.25000  0.00000  1.0000
  Li  Li16      1.0  0.41667  0.33333  0.33333  1.0000
  Li  Li17      1.0  0.33333  0.41667  0.66667  1.0000
  Co  Co16      1.0  0.25000  0.25000  0.50000  1.0000
  Co  Co17      1.0  0.41667  0.33333  0.83333  1.0000
  Co  Co18      1.0  0.33333  0.41667  0.16667  1.0000
  O   O31       1.0  0.25000  0.25000  0.76049  1.0000
  O   O32       1.0  0.25000  0.25000  0.23951  1.0000
  O   O33       1.0  0.41667  0.33333  0.09382  1.0000
  O   O34       1.0  0.41667  0.33333  0.57284  1.0000
  O   O35       1.0  0.33333  0.41667  0.42716  1.0000
  O   O36       1.0  0.33333  0.41667  0.90618  1.0000
  Li  Li18      1.0  0.25000  0.50000  0.00000  1.0000
  Li  Li19      1.0  0.41667  0.58333  0.33333  1.0000
  Li  Li20      1.0  0.33333  0.66667  0.66667  1.0000
  Co  Co19      1.0  0.25000  0.50000  0.50000  1.0000
  Co  Co20      1.0  0.41667  0.58333  0.83333  1.0000
  Co  Co21      1.0  0.33333  0.66667  0.16667  1.0000
  O   O37       1.0  0.25000  0.50000  0.76049  1.0000
  O   O38       1.0  0.25000  0.50000  0.23951  1.0000
  O   O39       1.0  0.41667  0.58333  0.09382  1.0000
  O   O40       1.0  0.41667  0.58333  0.57284  1.0000
  O   O41       1.0  0.33333  0.66667  0.42716  1.0000
  O   O42       1.0  0.33333  0.66667  0.90618  1.0000
  Li  Li21      1.0  0.25000  0.75000  0.00000  1.0000
  Li  Li22      1.0  0.41667  0.83333  0.33333  1.0000
  Li  Li23      1.0  0.33333  0.91667  0.66667  1.0000
  Co  Co22      1.0  0.25000  0.75000  0.50000  1.0000
  Co  Co23      1.0  0.41667  0.83333  0.83333  1.0000
  Co  Co24      1.0  0.33333  0.91667  0.16667  1.0000
  O   O43       1.0  0.25000  0.75000  0.76049  1.0000
  O   O44       1.0  0.25000  0.75000  0.23951  1.0000
  O   O45       1.0  0.41667  0.83333  0.09382  1.0000
  O   O46       1.0  0.41667  0.83333  0.57284  1.0000
  O   O47       1.0  0.33333  0.91667  0.42716  1.0000
  O   O48       1.0  0.33333  0.91667  0.90618  1.0000
  Li  Li24      1.0  0.50000  0.00000  0.00000  1.0000
  Li  Li25      1.0  0.66667  0.08333  0.33333  1.0000
  Li  Li26      1.0  0.58333  0.16667  0.66667  1.0000
  Co  Co25      1.0  0.50000  0.00000  0.50000  1.0000
  Co  Co26      1.0  0.66667  0.08333  0.83333  1.0000
  Co  Co27      1.0  0.58333  0.16667  0.16667  1.0000
  O   O49       1.0  0.50000  0.00000  0.76049  1.0000
  O   O50       1.0  0.50000  0.00000  0.23951  1.0000
  O   O51       1.0  0.66667  0.08333  0.09382  1.0000
  O   O52       1.0  0.66667  0.08333  0.57284  1.0000
  O   O53       1.0  0.58333  0.16667  0.42716  1.0000
  O   O54       1.0  0.58333  0.16667  0.90618  1.0000
  Li  Li27      1.0  0.50000  0.25000  0.00000  1.0000
  Li  Li28      1.0  0.66667  0.33333  0.33333  1.0000
  Li  Li29      1.0  0.58333  0.41667  0.66667  1.0000
  Co  Co28      1.0  0.50000  0.25000  0.50000  1.0000
  Co  Co29      1.0  0.66667  0.33333  0.83333  1.0000
  Co  Co30      1.0  0.58333  0.41667  0.16667  1.0000
  O   O55       1.0  0.50000  0.25000  0.76049  1.0000
  O   O56       1.0  0.50000  0.25000  0.23951  1.0000
  O   O57       1.0  0.66667  0.33333  0.09382  1.0000
  O   O58       1.0  0.66667  0.33333  0.57284  1.0000
  O   O59       1.0  0.58333  0.41667  0.42716  1.0000
  O   O60       1.0  0.58333  0.41667  0.90618  1.0000
  Li  Li30      1.0  0.50000  0.50000  0.00000  1.0000
  Li  Li31      1.0  0.66667  0.58333  0.33333  1.0000
  Li  Li32      1.0  0.58333  0.66667  0.66667  1.0000
  Co  Co31      1.0  0.50000  0.50000  0.50000  1.0000
  Co  Co32      1.0  0.66667  0.58333  0.83333  1.0000
  Co  Co33      1.0  0.58333  0.66667  0.16667  1.0000
  O   O61       1.0  0.50000  0.50000  0.76049  1.0000
  O   O62       1.0  0.50000  0.50000  0.23951  1.0000
  O   O63       1.0  0.66667  0.58333  0.09382  1.0000
  O   O64       1.0  0.66667  0.58333  0.57284  1.0000
  O   O65       1.0  0.58333  0.66667  0.42716  1.0000
  O   O66       1.0  0.58333  0.66667  0.90618  1.0000
  Li  Li33      1.0  0.50000  0.75000  0.00000  1.0000
  Li  Li34      1.0  0.66667  0.83333  0.33333  1.0000
  Li  Li35      1.0  0.58333  0.91667  0.66667  1.0000
  Co  Co34      1.0  0.50000  0.75000  0.50000  1.0000
  Co  Co35      1.0  0.66667  0.83333  0.83333  1.0000
  Co  Co36      1.0  0.58333  0.91667  0.16667  1.0000
  O   O67       1.0  0.50000  0.75000  0.76049  1.0000
  O   O68       1.0  0.50000  0.75000  0.23951  1.0000
  O   O69       1.0  0.66667  0.83333  0.09382  1.0000
  O   O70       1.0  0.66667  0.83333  0.57284  1.0000
  O   O71       1.0  0.58333  0.91667  0.42716  1.0000
  O   O72       1.0  0.58333  0.91667  0.90618  1.0000
  Li  Li36      1.0  0.75000  0.00000  0.00000  1.0000
  Li  Li37      1.0  0.91667  0.08333  0.33333  1.0000
  Li  Li38      1.0  0.83333  0.16667  0.66667  1.0000
  Co  Co37      1.0  0.75000  0.00000  0.50000  1.0000
  Co  Co38      1.0  0.91667  0.08333  0.83333  1.0000
  Co  Co39      1.0  0.83333  0.16667  0.16667  1.0000
  O   O73       1.0  0.75000  0.00000  0.76049  1.0000
  O   O74       1.0  0.75000  0.00000  0.23951  1.0000
  O   O75       1.0  0.91667  0.08333  0.09382  1.0000
  O   O76       1.0  0.91667  0.08333  0.57284  1.0000
  O   O77       1.0  0.83333  0.16667  0.42716  1.0000
  O   O78       1.0  0.83333  0.16667  0.90618  1.0000
  Li  Li39      1.0  0.75000  0.25000  0.00000  1.0000
  Li  Li40      1.0  0.91667  0.33333  0.33333  1.0000
  Li  Li41      1.0  0.83333  0.41667  0.66667  1.0000
  Co  Co40      1.0  0.75000  0.25000  0.50000  1.0000
  Co  Co41      1.0  0.91667  0.33333  0.83333  1.0000
  Co  Co42      1.0  0.83333  0.41667  0.16667  1.0000
  O   O79       1.0  0.75000  0.25000  0.76049  1.0000
  O   O80       1.0  0.75000  0.25000  0.23951  1.0000
  O   O81       1.0  0.91667  0.33333  0.09382  1.0000
  O   O82       1.0  0.91667  0.33333  0.57284  1.0000
  O   O83       1.0  0.83333  0.41667  0.42716  1.0000
  O   O84       1.0  0.83333  0.41667  0.90618  1.0000
  Li  Li42      1.0  0.75000  0.50000  0.00000  1.0000
  Li  Li43      1.0  0.91667  0.58333  0.33333  1.0000
  Li  Li44      1.0  0.83333  0.66667  0.66667  1.0000
  Co  Co43      1.0  0.75000  0.50000  0.50000  1.0000
  Co  Co44      1.0  0.91667  0.58333  0.83333  1.0000
  Co  Co45      1.0  0.83333  0.66667  0.16667  1.0000
  O   O85       1.0  0.75000  0.50000  0.76049  1.0000
  O   O86       1.0  0.75000  0.50000  0.23951  1.0000
  O   O87       1.0  0.91667  0.58333  0.09382  1.0000
  O   O88       1.0  0.91667  0.58333  0.57284  1.0000
  O   O89       1.0  0.83333  0.66667  0.42716  1.0000
  O   O90       1.0  0.83333  0.66667  0.90618  1.0000
  Li  Li45      1.0  0.75000  0.75000  0.00000  1.0000
  Li  Li46      1.0  0.91667  0.83333  0.33333  1.0000
  Li  Li47      1.0  0.83333  0.91667  0.66667  1.0000
  Co  Co46      1.0  0.75000  0.75000  0.50000  1.0000
  Co  Co47      1.0  0.91667  0.83333  0.83333  1.0000
  Co  Co48      1.0  0.83333  0.91667  0.16667  1.0000
  O   O91       1.0  0.75000  0.75000  0.76049  1.0000
  O   O92       1.0  0.75000  0.75000  0.23951  1.0000
  O   O93       1.0  0.91667  0.83333  0.09382  1.0000
  O   O94       1.0  0.91667  0.83333  0.57284  1.0000
  O   O95       1.0  0.83333  0.91667  0.42716  1.0000
  O   O96       1.0  0.83333  0.91667  0.90618  1.0000
data_image7
_chemical_formula_structural       Li2Co3O6Li3Co3O6Li3Co3O6Li3Co3O6Li3Co3O6Li3Co3O6Li3Co3O6Li3Co3O6Li3Co3O6Li3Co3O6Li3Co3O6Li3Co3O6Li3Co3O6Li3Co3O6Li3Co3O6Li3Co3O6
_chemical_formula_sum              "Li47 Co48 O96"
_cell_length_a       11.2644
_cell_length_b       11.2644
_cell_length_c       14.0536
_cell_angle_alpha    90
_cell_angle_beta     90
_cell_angle_gamma    120

_space_group_name_H-M_alt    "P 1"
_space_group_IT_number       1

loop_
  _space_group_symop_operation_xyz
  'x, y, z'

loop_
  _atom_site_type_symbol
  _atom_site_label
  _atom_site_symmetry_multiplicity
  _atom_site_fract_x
  _atom_site_fract_y
  _atom_site_fract_z
  _atom_site_occupancy
  Li  Li1       1.0  0.16514  0.08332  0.28715  1.0000
  Li  Li2       1.0  0.08333  0.16667  0.66667  1.0000
  Co  Co1       1.0  0.00000  0.00000  0.50000  1.0000
  Co  Co2       1.0  0.16667  0.08333  0.83333  1.0000
  Co  Co3       1.0  0.08333  0.16667  0.16667  1.0000
  O   O1        1.0  0.00000  0.00000  0.76049  1.0000
  O   O2        1.0  0.00000  0.00000  0.23951  1.0000
  O   O3        1.0  0.16667  0.08333  0.09382  1.0000
  O   O4        1.0  0.16667  0.08333  0.57284  1.0000
  O   O5        1.0  0.08333  0.16667  0.42716  1.0000
  O   O6        1.0  0.08333  0.16667  0.90618  1.0000
  Li  Li3       1.0  0.00000  0.25000  0.00000  1.0000
  Li  Li4       1.0  0.16667  0.33333  0.33333  1.0000
  Li  Li5       1.0  0.08333  0.41667  0.66667  1.0000
  Co  Co4       1.0  0.00000  0.25000  0.50000  1.0000
  Co  Co5       1.0  0.16667  0.33333  0.83333  1.0000
  Co  Co6       1.0  0.08333  0.41667  0.16667  1.0000
  O   O7        1.0  0.00000  0.25000  0.76049  1.0000
  O   O8        1.0  0.00000  0.25000  0.23951  1.0000
  O   O9        1.0  0.16667  0.33333  0.09382  1.0000
  O   O10       1.0  0.16667  0.33333  0.57284  1.0000
  O   O11       1.0  0.08333  0.41667  0.42716  1.0000
  O   O12       1.0  0.08333  0.41667  0.90618  1.0000
  Li  Li6       1.0  0.00000  0.50000  0.00000  1.0000
  Li  Li7       1.0  0.16667  0.58333  0.33333  1.0000
  Li  Li8       1.0  0.08333  0.66667  0.66667  1.0000
  Co  Co7       1.0  0.00000  0.50000  0.50000  1.0000
  Co  Co8       1.0  0.16667  0.58333  0.83333  1.0000
  Co  Co9       1.0  0.08333  0.66667  0.16667  1.0000
  O   O13       1.0  0.00000  0.50000  0.76049  1.0000
  O   O14       1.0  0.00000  0.50000  0.23951  1.0000
  O   O15       1.0  0.16667  0.58333  0.09382  1.0000
  O   O16       1.0  0.16667  0.58333  0.57284  1.0000
  O   O17       1.0  0.08333  0.66667  0.42716  1.0000
  O   O18       1.0  0.08333  0.66667  0.90618  1.0000
  Li  Li9       1.0  0.00000  0.75000  0.00000  1.0000
  Li  Li10      1.0  0.16667  0.83333  0.33333  1.0000
  Li  Li11      1.0  0.08333  0.91667  0.66667  1.0000
  Co  Co10      1.0  0.00000  0.75000  0.50000  1.0000
  Co  Co11      1.0  0.16667  0.83333  0.83333  1.0000
  Co  Co12      1.0  0.08333  0.91667  0.16667  1.0000
  O   O19       1.0  0.00000  0.75000  0.76049  1.0000
  O   O20       1.0  0.00000  0.75000  0.23951  1.0000
  O   O21       1.0  0.16667  0.83333  0.09382  1.0000
  O   O22       1.0  0.16667  0.83333  0.57284  1.0000
  O   O23       1.0  0.08333  0.91667  0.42716  1.0000
  O   O24       1.0  0.08333  0.91667  0.90618  1.0000
  Li  Li12      1.0  0.25000  0.00000  0.00000  1.0000
  Li  Li13      1.0  0.41667  0.08333  0.33333  1.0000
  Li  Li14      1.0  0.33333  0.16667  0.66667  1.0000
  Co  Co13      1.0  0.25000  0.00000  0.50000  1.0000
  Co  Co14      1.0  0.41667  0.08333  0.83333  1.0000
  Co  Co15      1.0  0.33333  0.16667  0.16667  1.0000
  O   O25       1.0  0.25000  0.00000  0.76049  1.0000
  O   O26       1.0  0.25000  0.00000  0.23951  1.0000
  O   O27       1.0  0.41667  0.08333  0.09382  1.0000
  O   O28       1.0  0.41667  0.08333  0.57284  1.0000
  O   O29       1.0  0.33333  0.16667  0.42716  1.0000
  O   O30       1.0  0.33333  0.16667  0.90618  1.0000
  Li  Li15      1.0  0.25000  0.25000  0.00000  1.0000
  Li  Li16      1.0  0.41667  0.33333  0.33333  1.0000
  Li  Li17      1.0  0.33333  0.41667  0.66667  1.0000
  Co  Co16      1.0  0.25000  0.25000  0.50000  1.0000
  Co  Co17      1.0  0.41667  0.33333  0.83333  1.0000
  Co  Co18      1.0  0.33333  0.41667  0.16667  1.0000
  O   O31       1.0  0.25000  0.25000  0.76049  1.0000
  O   O32       1.0  0.25000  0.25000  0.23951  1.0000
  O   O33       1.0  0.41667  0.33333  0.09382  1.0000
  O   O34       1.0  0.41667  0.33333  0.57284  1.0000
  O   O35       1.0  0.33333  0.41667  0.42716  1.0000
  O   O36       1.0  0.33333  0.41667  0.90618  1.0000
  Li  Li18      1.0  0.25000  0.50000  0.00000  1.0000
  Li  Li19      1.0  0.41667  0.58333  0.33333  1.0000
  Li  Li20      1.0  0.33333  0.66667  0.66667  1.0000
  Co  Co19      1.0  0.25000  0.50000  0.50000  1.0000
  Co  Co20      1.0  0.41667  0.58333  0.83333  1.0000
  Co  Co21      1.0  0.33333  0.66667  0.16667  1.0000
  O   O37       1.0  0.25000  0.50000  0.76049  1.0000
  O   O38       1.0  0.25000  0.50000  0.23951  1.0000
  O   O39       1.0  0.41667  0.58333  0.09382  1.0000
  O   O40       1.0  0.41667  0.58333  0.57284  1.0000
  O   O41       1.0  0.33333  0.66667  0.42716  1.0000
  O   O42       1.0  0.33333  0.66667  0.90618  1.0000
  Li  Li21      1.0  0.25000  0.75000  0.00000  1.0000
  Li  Li22      1.0  0.41667  0.83333  0.33333  1.0000
  Li  Li23      1.0  0.33333  0.91667  0.66667  1.0000
  Co  Co22      1.0  0.25000  0.75000  0.50000  1.0000
  Co  Co23      1.0  0.41667  0.83333  0.83333  1.0000
  Co  Co24      1.0  0.33333  0.91667  0.16667  1.0000
  O   O43       1.0  0.25000  0.75000  0.76049  1.0000
  O   O44       1.0  0.25000  0.75000  0.23951  1.0000
  O   O45       1.0  0.41667  0.83333  0.09382  1.0000
  O   O46       1.0  0.41667  0.83333  0.57284  1.0000
  O   O47       1.0  0.33333  0.91667  0.42716  1.0000
  O   O48       1.0  0.33333  0.91667  0.90618  1.0000
  Li  Li24      1.0  0.50000  0.00000  0.00000  1.0000
  Li  Li25      1.0  0.66667  0.08333  0.33333  1.0000
  Li  Li26      1.0  0.58333  0.16667  0.66667  1.0000
  Co  Co25      1.0  0.50000  0.00000  0.50000  1.0000
  Co  Co26      1.0  0.66667  0.08333  0.83333  1.0000
  Co  Co27      1.0  0.58333  0.16667  0.16667  1.0000
  O   O49       1.0  0.50000  0.00000  0.76049  1.0000
  O   O50       1.0  0.50000  0.00000  0.23951  1.0000
  O   O51       1.0  0.66667  0.08333  0.09382  1.0000
  O   O52       1.0  0.66667  0.08333  0.57284  1.0000
  O   O53       1.0  0.58333  0.16667  0.42716  1.0000
  O   O54       1.0  0.58333  0.16667  0.90618  1.0000
  Li  Li27      1.0  0.50000  0.25000  0.00000  1.0000
  Li  Li28      1.0  0.66667  0.33333  0.33333  1.0000
  Li  Li29      1.0  0.58333  0.41667  0.66667  1.0000
  Co  Co28      1.0  0.50000  0.25000  0.50000  1.0000
  Co  Co29      1.0  0.66667  0.33333  0.83333  1.0000
  Co  Co30      1.0  0.58333  0.41667  0.16667  1.0000
  O   O55       1.0  0.50000  0.25000  0.76049  1.0000
  O   O56       1.0  0.50000  0.25000  0.23951  1.0000
  O   O57       1.0  0.66667  0.33333  0.09382  1.0000
  O   O58       1.0  0.66667  0.33333  0.57284  1.0000
  O   O59       1.0  0.58333  0.41667  0.42716  1.0000
  O   O60       1.0  0.58333  0.41667  0.90618  1.0000
  Li  Li30      1.0  0.50000  0.50000  0.00000  1.0000
  Li  Li31      1.0  0.66667  0.58333  0.33333  1.0000
  Li  Li32      1.0  0.58333  0.66667  0.66667  1.0000
  Co  Co31      1.0  0.50000  0.50000  0.50000  1.0000
  Co  Co32      1.0  0.66667  0.58333  0.83333  1.0000
  Co  Co33      1.0  0.58333  0.66667  0.16667  1.0000
  O   O61       1.0  0.50000  0.50000  0.76049  1.0000
  O   O62       1.0  0.50000  0.50000  0.23951  1.0000
  O   O63       1.0  0.66667  0.58333  0.09382  1.0000
  O   O64       1.0  0.66667  0.58333  0.57284  1.0000
  O   O65       1.0  0.58333  0.66667  0.42716  1.0000
  O   O66       1.0  0.58333  0.66667  0.90618  1.0000
  Li  Li33      1.0  0.50000  0.75000  0.00000  1.0000
  Li  Li34      1.0  0.66667  0.83333  0.33333  1.0000
  Li  Li35      1.0  0.58333  0.91667  0.66667  1.0000
  Co  Co34      1.0  0.50000  0.75000  0.50000  1.0000
  Co  Co35      1.0  0.66667  0.83333  0.83333  1.0000
  Co  Co36      1.0  0.58333  0.91667  0.16667  1.0000
  O   O67       1.0  0.50000  0.75000  0.76049  1.0000
  O   O68       1.0  0.50000  0.75000  0.23951  1.0000
  O   O69       1.0  0.66667  0.83333  0.09382  1.0000
  O   O70       1.0  0.66667  0.83333  0.57284  1.0000
  O   O71       1.0  0.58333  0.91667  0.42716  1.0000
  O   O72       1.0  0.58333  0.91667  0.90618  1.0000
  Li  Li36      1.0  0.75000  0.00000  0.00000  1.0000
  Li  Li37      1.0  0.91667  0.08333  0.33333  1.0000
  Li  Li38      1.0  0.83333  0.16667  0.66667  1.0000
  Co  Co37      1.0  0.75000  0.00000  0.50000  1.0000
  Co  Co38      1.0  0.91667  0.08333  0.83333  1.0000
  Co  Co39      1.0  0.83333  0.16667  0.16667  1.0000
  O   O73       1.0  0.75000  0.00000  0.76049  1.0000
  O   O74       1.0  0.75000  0.00000  0.23951  1.0000
  O   O75       1.0  0.91667  0.08333  0.09382  1.0000
  O   O76       1.0  0.91667  0.08333  0.57284  1.0000
  O   O77       1.0  0.83333  0.16667  0.42716  1.0000
  O   O78       1.0  0.83333  0.16667  0.90618  1.0000
  Li  Li39      1.0  0.75000  0.25000  0.00000  1.0000
  Li  Li40      1.0  0.91667  0.33333  0.33333  1.0000
  Li  Li41      1.0  0.83333  0.41667  0.66667  1.0000
  Co  Co40      1.0  0.75000  0.25000  0.50000  1.0000
  Co  Co41      1.0  0.91667  0.33333  0.83333  1.0000
  Co  Co42      1.0  0.83333  0.41667  0.16667  1.0000
  O   O79       1.0  0.75000  0.25000  0.76049  1.0000
  O   O80       1.0  0.75000  0.25000  0.23951  1.0000
  O   O81       1.0  0.91667  0.33333  0.09382  1.0000
  O   O82       1.0  0.91667  0.33333  0.57284  1.0000
  O   O83       1.0  0.83333  0.41667  0.42716  1.0000
  O   O84       1.0  0.83333  0.41667  0.90618  1.0000
  Li  Li42      1.0  0.75000  0.50000  0.00000  1.0000
  Li  Li43      1.0  0.91667  0.58333  0.33333  1.0000
  Li  Li44      1.0  0.83333  0.66667  0.66667  1.0000
  Co  Co43      1.0  0.75000  0.50000  0.50000  1.0000
  Co  Co44      1.0  0.91667  0.58333  0.83333  1.0000
  Co  Co45      1.0  0.83333  0.66667  0.16667  1.0000
  O   O85       1.0  0.75000  0.50000  0.76049  1.0000
  O   O86       1.0  0.75000  0.50000  0.23951  1.0000
  O   O87       1.0  0.91667  0.58333  0.09382  1.0000
  O   O88       1.0  0.91667  0.58333  0.57284  1.0000
  O   O89       1.0  0.83333  0.66667  0.42716  1.0000
  O   O90       1.0  0.83333  0.66667  0.90618  1.0000
  Li  Li45      1.0  0.75000  0.75000  0.00000  1.0000
  Li  Li46      1.0  0.91667  0.83333  0.33333  1.0000
  Li  Li47      1.0  0.83333  0.91667  0.66667  1.0000
  Co  Co46      1.0  0.75000  0.75000  0.50000  1.0000
  Co  Co47      1.0  0.91667  0.83333  0.83333  1.0000
  Co  Co48      1.0  0.83333  0.91667  0.16667  1.0000
  O   O91       1.0  0.75000  0.75000  0.76049  1.0000
  O   O92       1.0  0.75000  0.75000  0.23951  1.0000
  O   O93       1.0  0.91667  0.83333  0.09382  1.0000
  O   O94       1.0  0.91667  0.83333  0.57284  1.0000
  O   O95       1.0  0.83333  0.91667  0.42716  1.0000
  O   O96       1.0  0.83333  0.91667  0.90618  1.0000
data_image8
_chemical_formula_structural       Li2Co3O6Li3Co3O6Li3Co3O6Li3Co3O6Li3Co3O6Li3Co3O6Li3Co3O6Li3Co3O6Li3Co3O6Li3Co3O6Li3Co3O6Li3Co3O6Li3Co3O6Li3Co3O6Li3Co3O6Li3Co3O6
_chemical_formula_sum              "Li47 Co48 O96"
_cell_length_a       11.2644
_cell_length_b       11.2644
_cell_length_c       14.0536
_cell_angle_alpha    90
_cell_angle_beta     90
_cell_angle_gamma    120

_space_group_name_H-M_alt    "P 1"
_space_group_IT_number       1

loop_
  _space_group_symop_operation_xyz
  'x, y, z'

loop_
  _atom_site_type_symbol
  _atom_site_label
  _atom_site_symmetry_multiplicity
  _atom_site_fract_x
  _atom_site_fract_y
  _atom_site_fract_z
  _atom_site_occupancy
  Li  Li1       1.0  0.16667  0.08333  0.33333  1.0000
  Li  Li2       1.0  0.08333  0.16667  0.66667  1.0000
  Co  Co1       1.0  0.00000  0.00000  0.50000  1.0000
  Co  Co2       1.0  0.16667  0.08333  0.83333  1.0000
  Co  Co3       1.0  0.08333  0.16667  0.16667  1.0000
  O   O1        1.0  0.00000  0.00000  0.76049  1.0000
  O   O2        1.0  0.00000  0.00000  0.23951  1.0000
  O   O3        1.0  0.16667  0.08333  0.09382  1.0000
  O   O4        1.0  0.16667  0.08333  0.57284  1.0000
  O   O5        1.0  0.08333  0.16667  0.42716  1.0000
  O   O6        1.0  0.08333  0.16667  0.90618  1.0000
  Li  Li3       1.0  0.00000  0.25000  0.00000  1.0000
  Li  Li4       1.0  0.16667  0.33333  0.33333  1.0000
  Li  Li5       1.0  0.08333  0.41667  0.66667  1.0000
  Co  Co4       1.0  0.00000  0.25000  0.50000  1.0000
  Co  Co5       1.0  0.16667  0.33333  0.83333  1.0000
  Co  Co6       1.0  0.08333  0.41667  0.16667  1.0000
  O   O7        1.0  0.00000  0.25000  0.76049  1.0000
  O   O8        1.0  0.00000  0.25000  0.23951  1.0000
  O   O9        1.0  0.16667  0.33333  0.09382  1.0000
  O   O10       1.0  0.16667  0.33333  0.57284  1.0000
  O   O11       1.0  0.08333  0.41667  0.42716  1.0000
  O   O12       1.0  0.08333  0.41667  0.90618  1.0000
  Li  Li6       1.0  0.00000  0.50000  0.00000  1.0000
  Li  Li7       1.0  0.16667  0.58333  0.33333  1.0000
  Li  Li8       1.0  0.08333  0.66667  0.66667  1.0000
  Co  Co7       1.0  0.00000  0.50000  0.50000  1.0000
  Co  Co8       1.0  0.16667  0.58333  0.83333  1.0000
  Co  Co9       1.0  0.08333  0.66667  0.16667  1.0000
  O   O13       1.0  0.00000  0.50000  0.76049  1.0000
  O   O14       1.0  0.00000  0.50000  0.23951  1.0000
  O   O15       1.0  0.16667  0.58333  0.09382  1.0000
  O   O16       1.0  0.16667  0.58333  0.57284  1.0000
  O   O17       1.0  0.08333  0.66667  0.42716  1.0000
  O   O18       1.0  0.08333  0.66667  0.90618  1.0000
  Li  Li9       1.0  0.00000  0.75000  0.00000  1.0000
  Li  Li10      1.0  0.16667  0.83333  0.33333  1.0000
  Li  Li11      1.0  0.08333  0.91667  0.66667  1.0000
  Co  Co10      1.0  0.00000  0.75000  0.50000  1.0000
  Co  Co11      1.0  0.16667  0.83333  0.83333  1.0000
  Co  Co12      1.0  0.08333  0.91667  0.16667  1.0000
  O   O19       1.0  0.00000  0.75000  0.76049  1.0000
  O   O20       1.0  0.00000  0.75000  0.23951  1.0000
  O   O21       1.0  0.16667  0.83333  0.09382  1.0000
  O   O22       1.0  0.16667  0.83333  0.57284  1.0000
  O   O23       1.0  0.08333  0.91667  0.42716  1.0000
  O   O24       1.0  0.08333  0.91667  0.90618  1.0000
  Li  Li12      1.0  0.25000  0.00000  0.00000  1.0000
  Li  Li13      1.0  0.41667  0.08333  0.33333  1.0000
  Li  Li14      1.0  0.33333  0.16667  0.66667  1.0000
  Co  Co13      1.0  0.25000  0.00000  0.50000  1.0000
  Co  Co14      1.0  0.41667  0.08333  0.83333  1.0000
  Co  Co15      1.0  0.33333  0.16667  0.16667  1.0000
  O   O25       1.0  0.25000  0.00000  0.76049  1.0000
  O   O26       1.0  0.25000  0.00000  0.23951  1.0000
  O   O27       1.0  0.41667  0.08333  0.09382  1.0000
  O   O28       1.0  0.41667  0.08333  0.57284  1.0000
  O   O29       1.0  0.33333  0.16667  0.42716  1.0000
  O   O30       1.0  0.33333  0.16667  0.90618  1.0000
  Li  Li15      1.0  0.25000  0.25000  0.00000  1.0000
  Li  Li16      1.0  0.41667  0.33333  0.33333  1.0000
  Li  Li17      1.0  0.33333  0.41667  0.66667  1.0000
  Co  Co16      1.0  0.25000  0.25000  0.50000  1.0000
  Co  Co17      1.0  0.41667  0.33333  0.83333  1.0000
  Co  Co18      1.0  0.33333  0.41667  0.16667  1.0000
  O   O31       1.0  0.25000  0.25000  0.76049  1.0000
  O   O32       1.0  0.25000  0.25000  0.23951  1.0000
  O   O33       1.0  0.41667  0.33333  0.09382  1.0000
  O   O34       1.0  0.41667  0.33333  0.57284  1.0000
  O   O35       1.0  0.33333  0.41667  0.42716  1.0000
  O   O36       1.0  0.33333  0.41667  0.90618  1.0000
  Li  Li18      1.0  0.25000  0.50000  0.00000  1.0000
  Li  Li19      1.0  0.41667  0.58333  0.33333  1.0000
  Li  Li20      1.0  0.33333  0.66667  0.66667  1.0000
  Co  Co19      1.0  0.25000  0.50000  0.50000  1.0000
  Co  Co20      1.0  0.41667  0.58333  0.83333  1.0000
  Co  Co21      1.0  0.33333  0.66667  0.16667  1.0000
  O   O37       1.0  0.25000  0.50000  0.76049  1.0000
  O   O38       1.0  0.25000  0.50000  0.23951  1.0000
  O   O39       1.0  0.41667  0.58333  0.09382  1.0000
  O   O40       1.0  0.41667  0.58333  0.57284  1.0000
  O   O41       1.0  0.33333  0.66667  0.42716  1.0000
  O   O42       1.0  0.33333  0.66667  0.90618  1.0000
  Li  Li21      1.0  0.25000  0.75000  0.00000  1.0000
  Li  Li22      1.0  0.41667  0.83333  0.33333  1.0000
  Li  Li23      1.0  0.33333  0.91667  0.66667  1.0000
  Co  Co22      1.0  0.25000  0.75000  0.50000  1.0000
  Co  Co23      1.0  0.41667  0.83333  0.83333  1.0000
  Co  Co24      1.0  0.33333  0.91667  0.16667  1.0000
  O   O43       1.0  0.25000  0.75000  0.76049  1.0000
  O   O44       1.0  0.25000  0.75000  0.23951  1.0000
  O   O45       1.0  0.41667  0.83333  0.09382  1.0000
  O   O46       1.0  0.41667  0.83333  0.57284  1.0000
  O   O47       1.0  0.33333  0.91667  0.42716  1.0000
  O   O48       1.0  0.33333  0.91667  0.90618  1.0000
  Li  Li24      1.0  0.50000  0.00000  0.00000  1.0000
  Li  Li25      1.0  0.66667  0.08333  0.33333  1.0000
  Li  Li26      1.0  0.58333  0.16667  0.66667  1.0000
  Co  Co25      1.0  0.50000  0.00000  0.50000  1.0000
  Co  Co26      1.0  0.66667  0.08333  0.83333  1.0000
  Co  Co27      1.0  0.58333  0.16667  0.16667  1.0000
  O   O49       1.0  0.50000  0.00000  0.76049  1.0000
  O   O50       1.0  0.50000  0.00000  0.23951  1.0000
  O   O51       1.0  0.66667  0.08333  0.09382  1.0000
  O   O52       1.0  0.66667  0.08333  0.57284  1.0000
  O   O53       1.0  0.58333  0.16667  0.42716  1.0000
  O   O54       1.0  0.58333  0.16667  0.90618  1.0000
  Li  Li27      1.0  0.50000  0.25000  0.00000  1.0000
  Li  Li28      1.0  0.66667  0.33333  0.33333  1.0000
  Li  Li29      1.0  0.58333  0.41667  0.66667  1.0000
  Co  Co28      1.0  0.50000  0.25000  0.50000  1.0000
  Co  Co29      1.0  0.66667  0.33333  0.83333  1.0000
  Co  Co30      1.0  0.58333  0.41667  0.16667  1.0000
  O   O55       1.0  0.50000  0.25000  0.76049  1.0000
  O   O56       1.0  0.50000  0.25000  0.23951  1.0000
  O   O57       1.0  0.66667  0.33333  0.09382  1.0000
  O   O58       1.0  0.66667  0.33333  0.57284  1.0000
  O   O59       1.0  0.58333  0.41667  0.42716  1.0000
  O   O60       1.0  0.58333  0.41667  0.90618  1.0000
  Li  Li30      1.0  0.50000  0.50000  0.00000  1.0000
  Li  Li31      1.0  0.66667  0.58333  0.33333  1.0000
  Li  Li32      1.0  0.58333  0.66667  0.66667  1.0000
  Co  Co31      1.0  0.50000  0.50000  0.50000  1.0000
  Co  Co32      1.0  0.66667  0.58333  0.83333  1.0000
  Co  Co33      1.0  0.58333  0.66667  0.16667  1.0000
  O   O61       1.0  0.50000  0.50000  0.76049  1.0000
  O   O62       1.0  0.50000  0.50000  0.23951  1.0000
  O   O63       1.0  0.66667  0.58333  0.09382  1.0000
  O   O64       1.0  0.66667  0.58333  0.57284  1.0000
  O   O65       1.0  0.58333  0.66667  0.42716  1.0000
  O   O66       1.0  0.58333  0.66667  0.90618  1.0000
  Li  Li33      1.0  0.50000  0.75000  0.00000  1.0000
  Li  Li34      1.0  0.66667  0.83333  0.33333  1.0000
  Li  Li35      1.0  0.58333  0.91667  0.66667  1.0000
  Co  Co34      1.0  0.50000  0.75000  0.50000  1.0000
  Co  Co35      1.0  0.66667  0.83333  0.83333  1.0000
  Co  Co36      1.0  0.58333  0.91667  0.16667  1.0000
  O   O67       1.0  0.50000  0.75000  0.76049  1.0000
  O   O68       1.0  0.50000  0.75000  0.23951  1.0000
  O   O69       1.0  0.66667  0.83333  0.09382  1.0000
  O   O70       1.0  0.66667  0.83333  0.57284  1.0000
  O   O71       1.0  0.58333  0.91667  0.42716  1.0000
  O   O72       1.0  0.58333  0.91667  0.90618  1.0000
  Li  Li36      1.0  0.75000  0.00000  0.00000  1.0000
  Li  Li37      1.0  0.91667  0.08333  0.33333  1.0000
  Li  Li38      1.0  0.83333  0.16667  0.66667  1.0000
  Co  Co37      1.0  0.75000  0.00000  0.50000  1.0000
  Co  Co38      1.0  0.91667  0.08333  0.83333  1.0000
  Co  Co39      1.0  0.83333  0.16667  0.16667  1.0000
  O   O73       1.0  0.75000  0.00000  0.76049  1.0000
  O   O74       1.0  0.75000  0.00000  0.23951  1.0000
  O   O75       1.0  0.91667  0.08333  0.09382  1.0000
  O   O76       1.0  0.91667  0.08333  0.57284  1.0000
  O   O77       1.0  0.83333  0.16667  0.42716  1.0000
  O   O78       1.0  0.83333  0.16667  0.90618  1.0000
  Li  Li39      1.0  0.75000  0.25000  0.00000  1.0000
  Li  Li40      1.0  0.91667  0.33333  0.33333  1.0000
  Li  Li41      1.0  0.83333  0.41667  0.66667  1.0000
  Co  Co40      1.0  0.75000  0.25000  0.50000  1.0000
  Co  Co41      1.0  0.91667  0.33333  0.83333  1.0000
  Co  Co42      1.0  0.83333  0.41667  0.16667  1.0000
  O   O79       1.0  0.75000  0.25000  0.76049  1.0000
  O   O80       1.0  0.75000  0.25000  0.23951  1.0000
  O   O81       1.0  0.91667  0.33333  0.09382  1.0000
  O   O82       1.0  0.91667  0.33333  0.57284  1.0000
  O   O83       1.0  0.83333  0.41667  0.42716  1.0000
  O   O84       1.0  0.83333  0.41667  0.90618  1.0000
  Li  Li42      1.0  0.75000  0.50000  0.00000  1.0000
  Li  Li43      1.0  0.91667  0.58333  0.33333  1.0000
  Li  Li44      1.0  0.83333  0.66667  0.66667  1.0000
  Co  Co43      1.0  0.75000  0.50000  0.50000  1.0000
  Co  Co44      1.0  0.91667  0.58333  0.83333  1.0000
  Co  Co45      1.0  0.83333  0.66667  0.16667  1.0000
  O   O85       1.0  0.75000  0.50000  0.76049  1.0000
  O   O86       1.0  0.75000  0.50000  0.23951  1.0000
  O   O87       1.0  0.91667  0.58333  0.09382  1.0000
  O   O88       1.0  0.91667  0.58333  0.57284  1.0000
  O   O89       1.0  0.83333  0.66667  0.42716  1.0000
  O   O90       1.0  0.83333  0.66667  0.90618  1.0000
  Li  Li45      1.0  0.75000  0.75000  0.00000  1.0000
  Li  Li46      1.0  0.91667  0.83333  0.33333  1.0000
  Li  Li47      1.0  0.83333  0.91667  0.66667  1.0000
  Co  Co46      1.0  0.75000  0.75000  0.50000  1.0000
  Co  Co47      1.0  0.91667  0.83333  0.83333  1.0000
  Co  Co48      1.0  0.83333  0.91667  0.16667  1.0000
  O   O91       1.0  0.75000  0.75000  0.76049  1.0000
  O   O92       1.0  0.75000  0.75000  0.23951  1.0000
  O   O93       1.0  0.91667  0.83333  0.09382  1.0000
  O   O94       1.0  0.91667  0.83333  0.57284  1.0000
  O   O95       1.0  0.83333  0.91667  0.42716  1.0000
  O   O96       1.0  0.83333  0.91667  0.90618  1.0000
data_image9
_chemical_formula_structural       Li3Co3O6Li3Co3O6Li3Co3O6Li3Co3O6Li3Co3O6Li3Co3O6Li3Co3O6Li2Co3O6Li3Co3O6Li3Co3O6Li3Co3O6Li3Co3O6Li3Co3O6Li3Co3O6Li3Co3O6Li3Co3O6
_chemical_formula_sum              "Li47 Co48 O96"
_cell_length_a       11.2644
_cell_length_b       11.2644
_cell_length_c       14.0536
_cell_angle_alpha    90
_cell_angle_beta     90
_cell_angle_gamma    120

_space_group_name_H-M_alt    "P 1"
_space_group_IT_number       1

loop_
  _space_group_symop_operation_xyz
  'x, y, z'

loop_
  _atom_site_type_symbol
  _atom_site_label
  _atom_site_symmetry_multiplicity
  _atom_site_fract_x
  _atom_site_fract_y
  _atom_site_fract_z
  _atom_site_occupancy
  Li  Li1       1.0  0.00000  0.00000  0.00000  1.0000
  Li  Li2       1.0  0.16667  0.08333  0.33333  1.0000
  Li  Li3       1.0  0.08333  0.16667  0.66667  1.0000
  Co  Co1       1.0  0.00000  0.00000  0.50000  1.0000
  Co  Co2       1.0  0.16667  0.08333  0.83333  1.0000
  Co  Co3       1.0  0.08333  0.16667  0.16667  1.0000
  O   O1        1.0  0.00000  0.00000  0.76049  1.0000
  O   O2        1.0  0.00000  0.00000  0.23951  1.0000
  O   O3        1.0  0.16667  0.08333  0.09382  1.0000
  O   O4        1.0  0.16667  0.08333  0.57284  1.0000
  O   O5        1.0  0.08333  0.16667  0.42716  1.0000
  O   O6        1.0  0.08333  0.16667  0.90618  1.0000
  Li  Li4       1.0  0.00000  0.25000  0.00000  1.0000
  Li  Li5       1.0  0.16667  0.33333  0.33333  1.0000
  Li  Li6       1.0  0.08333  0.41667  0.66667  1.0000
  Co  Co4       1.0  0.00000  0.25000  0.50000  1.0000
  Co  Co5       1.0  0.16667  0.33333  0.83333  1.0000
  Co  Co6       1.0  0.08333  0.41667  0.16667  1.0000
  O   O7        1.0  0.00000  0.25000  0.76049  1.0000
  O   O8        1.0  0.00000  0.25000  0.23951  1.0000
  O   O9        1.0  0.16667  0.33333  0.09382  1.0000
  O   O10       1.0  0.16667  0.33333  0.57284  1.0000
  O   O11       1.0  0.08333  0.41667  0.42716  1.0000
  O   O12       1.0  0.08333  0.41667  0.90618  1.0000
  Li  Li7       1.0  0.00000  0.50000  0.00000  1.0000
  Li  Li8       1.0  0.16667  0.58333  0.33333  1.0000
  Li  Li9       1.0  0.08333  0.66667  0.66667  1.0000
  Co  Co7       1.0  0.00000  0.50000  0.50000  1.0000
  Co  Co8       1.0  0.16667  0.58333  0.83333  1.0000
  Co  Co9       1.0  0.08333  0.66667  0.16667  1.0000
  O   O13       1.0  0.00000  0.50000  0.76049  1.0000
  O   O14       1.0  0.00000  0.50000  0.23951  1.0000
  O   O15       1.0  0.16667  0.58333  0.09382  1.0000
  O   O16       1.0  0.16667  0.58333  0.57284  1.0000
  O   O17       1.0  0.08333  0.66667  0.42716  1.0000
  O   O18       1.0  0.08333  0.66667  0.90618  1.0000
  Li  Li10      1.0  0.00000  0.75000  0.00000  1.0000
  Li  Li11      1.0  0.16667  0.83333  0.33333  1.0000
  Li  Li12      1.0  0.08333  0.91667  0.66667  1.0000
  Co  Co10      1.0  0.00000  0.75000  0.50000  1.0000
  Co  Co11      1.0  0.16667  0.83333  0.83333  1.0000
  Co  Co12      1.0  0.08333  0.91667  0.16667  1.0000
  O   O19       1.0  0.00000  0.75000  0.76049  1.0000
  O   O20       1.0  0.00000  0.75000  0.23951  1.0000
  O   O21       1.0  0.16667  0.83333  0.09382  1.0000
  O   O22       1.0  0.16667  0.83333  0.57284  1.0000
  O   O23       1.0  0.08333  0.91667  0.42716  1.0000
  O   O24       1.0  0.08333  0.91667  0.90618  1.0000
  Li  Li13      1.0  0.25000  0.00000  0.00000  1.0000
  Li  Li14      1.0  0.41667  0.08333  0.33333  1.0000
  Li  Li15      1.0  0.33333  0.16667  0.66667  1.0000
  Co  Co13      1.0  0.25000  0.00000  0.50000  1.0000
  Co  Co14      1.0  0.41667  0.08333  0.83333  1.0000
  Co  Co15      1.0  0.33333  0.16667  0.16667  1.0000
  O   O25       1.0  0.25000  0.00000  0.76049  1.0000
  O   O26       1.0  0.25000  0.00000  0.23951  1.0000
  O   O27       1.0  0.41667  0.08333  0.09382  1.0000
  O   O28       1.0  0.41667  0.08333  0.57284  1.0000
  O   O29       1.0  0.33333  0.16667  0.42716  1.0000
  O   O30       1.0  0.33333  0.16667  0.90618  1.0000
  Li  Li16      1.0  0.25000  0.25000  0.00000  1.0000
  Li  Li17      1.0  0.41667  0.33333  0.33333  1.0000
  Li  Li18      1.0  0.33333  0.41667  0.66667  1.0000
  Co  Co16      1.0  0.25000  0.25000  0.50000  1.0000
  Co  Co17      1.0  0.41667  0.33333  0.83333  1.0000
  Co  Co18      1.0  0.33333  0.41667  0.16667  1.0000
  O   O31       1.0  0.25000  0.25000  0.76049  1.0000
  O   O32       1.0  0.25000  0.25000  0.23951  1.0000
  O   O33       1.0  0.41667  0.33333  0.09382  1.0000
  O   O34       1.0  0.41667  0.33333  0.57284  1.0000
  O   O35       1.0  0.33333  0.41667  0.42716  1.0000
  O   O36       1.0  0.33333  0.41667  0.90618  1.0000
  Li  Li19      1.0  0.25000  0.50000  0.00000  1.0000
  Li  Li20      1.0  0.41667  0.58333  0.33333  1.0000
  Li  Li21      1.0  0.33333  0.66667  0.66667  1.0000
  Co  Co19      1.0  0.25000  0.50000  0.50000  1.0000
  Co  Co20      1.0  0.41667  0.58333  0.83333  1.0000
  Co  Co21      1.0  0.33333  0.66667  0.16667  1.0000
  O   O37       1.0  0.25000  0.50000  0.76049  1.0000
  O   O38       1.0  0.25000  0.50000  0.23951  1.0000
  O   O39       1.0  0.41667  0.58333  0.09382  1.0000
  O   O40       1.0  0.41667  0.58333  0.57284  1.0000
  O   O41       1.0  0.33333  0.66667  0.42716  1.0000
  O   O42       1.0  0.33333  0.66667  0.90618  1.0000
  Li  Li22      1.0  0.41667  0.83333  0.33333  1.0000
  Li  Li23      1.0  0.33333  0.91667  0.66667  1.0000
  Co  Co22      1.0  0.25000  0.75000  0.50000  1.0000
  Co  Co23      1.0  0.41667  0.83333  0.83333  1.0000
  Co  Co24      1.0  0.33333  0.91667  0.16667  1.0000
  O   O43       1.0  0.25000  0.75000  0.76049  1.0000
  O   O44       1.0  0.25000  0.75000  0.23951  1.0000
  O   O45       1.0  0.41667  0.83333  0.09382  1.0000
  O   O46       1.0  0.41667  0.83333  0.57284  1.0000
  O   O47       1.0  0.33333  0.91667  0.42716  1.0000
  O   O48       1.0  0.33333  0.91667  0.90618  1.0000
  Li  Li24      1.0  0.50000  0.00000  0.00000  1.0000
  Li  Li25      1.0  0.66667  0.08333  0.33333  1.0000
  Li  Li26      1.0  0.58333  0.16667  0.66667  1.0000
  Co  Co25      1.0  0.50000  0.00000  0.50000  1.0000
  Co  Co26      1.0  0.66667  0.08333  0.83333  1.0000
  Co  Co27      1.0  0.58333  0.16667  0.16667  1.0000
  O   O49       1.0  0.50000  0.00000  0.76049  1.0000
  O   O50       1.0  0.50000  0.00000  0.23951  1.0000
  O   O51       1.0  0.66667  0.08333  0.09382  1.0000
  O   O52       1.0  0.66667  0.08333  0.57284  1.0000
  O   O53       1.0  0.58333  0.16667  0.42716  1.0000
  O   O54       1.0  0.58333  0.16667  0.90618  1.0000
  Li  Li27      1.0  0.50000  0.25000  0.00000  1.0000
  Li  Li28      1.0  0.66667  0.33333  0.33333  1.0000
  Li  Li29      1.0  0.58333  0.41667  0.66667  1.0000
  Co  Co28      1.0  0.50000  0.25000  0.50000  1.0000
  Co  Co29      1.0  0.66667  0.33333  0.83333  1.0000
  Co  Co30      1.0  0.58333  0.41667  0.16667  1.0000
  O   O55       1.0  0.50000  0.25000  0.76049  1.0000
  O   O56       1.0  0.50000  0.25000  0.23951  1.0000
  O   O57       1.0  0.66667  0.33333  0.09382  1.0000
  O   O58       1.0  0.66667  0.33333  0.57284  1.0000
  O   O59       1.0  0.58333  0.41667  0.42716  1.0000
  O   O60       1.0  0.58333  0.41667  0.90618  1.0000
  Li  Li30      1.0  0.50000  0.50000  0.00000  1.0000
  Li  Li31      1.0  0.66667  0.58333  0.33333  1.0000
  Li  Li32      1.0  0.58333  0.66667  0.66667  1.0000
  Co  Co31      1.0  0.50000  0.50000  0.50000  1.0000
  Co  Co32      1.0  0.66667  0.58333  0.83333  1.0000
  Co  Co33      1.0  0.58333  0.66667  0.16667  1.0000
  O   O61       1.0  0.50000  0.50000  0.76049  1.0000
  O   O62       1.0  0.50000  0.50000  0.23951  1.0000
  O   O63       1.0  0.66667  0.58333  0.09382  1.0000
  O   O64       1.0  0.66667  0.58333  0.57284  1.0000
  O   O65       1.0  0.58333  0.66667  0.42716  1.0000
  O   O66       1.0  0.58333  0.66667  0.90618  1.0000
  Li  Li33      1.0  0.50000  0.75000  0.00000  1.0000
  Li  Li34      1.0  0.66667  0.83333  0.33333  1.0000
  Li  Li35      1.0  0.58333  0.91667  0.66667  1.0000
  Co  Co34      1.0  0.50000  0.75000  0.50000  1.0000
  Co  Co35      1.0  0.66667  0.83333  0.83333  1.0000
  Co  Co36      1.0  0.58333  0.91667  0.16667  1.0000
  O   O67       1.0  0.50000  0.75000  0.76049  1.0000
  O   O68       1.0  0.50000  0.75000  0.23951  1.0000
  O   O69       1.0  0.66667  0.83333  0.09382  1.0000
  O   O70       1.0  0.66667  0.83333  0.57284  1.0000
  O   O71       1.0  0.58333  0.91667  0.42716  1.0000
  O   O72       1.0  0.58333  0.91667  0.90618  1.0000
  Li  Li36      1.0  0.75000  0.00000  0.00000  1.0000
  Li  Li37      1.0  0.91667  0.08333  0.33333  1.0000
  Li  Li38      1.0  0.83333  0.16667  0.66667  1.0000
  Co  Co37      1.0  0.75000  0.00000  0.50000  1.0000
  Co  Co38      1.0  0.91667  0.08333  0.83333  1.0000
  Co  Co39      1.0  0.83333  0.16667  0.16667  1.0000
  O   O73       1.0  0.75000  0.00000  0.76049  1.0000
  O   O74       1.0  0.75000  0.00000  0.23951  1.0000
  O   O75       1.0  0.91667  0.08333  0.09382  1.0000
  O   O76       1.0  0.91667  0.08333  0.57284  1.0000
  O   O77       1.0  0.83333  0.16667  0.42716  1.0000
  O   O78       1.0  0.83333  0.16667  0.90618  1.0000
  Li  Li39      1.0  0.75000  0.25000  0.00000  1.0000
  Li  Li40      1.0  0.91667  0.33333  0.33333  1.0000
  Li  Li41      1.0  0.83333  0.41667  0.66667  1.0000
  Co  Co40      1.0  0.75000  0.25000  0.50000  1.0000
  Co  Co41      1.0  0.91667  0.33333  0.83333  1.0000
  Co  Co42      1.0  0.83333  0.41667  0.16667  1.0000
  O   O79       1.0  0.75000  0.25000  0.76049  1.0000
  O   O80       1.0  0.75000  0.25000  0.23951  1.0000
  O   O81       1.0  0.91667  0.33333  0.09382  1.0000
  O   O82       1.0  0.91667  0.33333  0.57284  1.0000
  O   O83       1.0  0.83333  0.41667  0.42716  1.0000
  O   O84       1.0  0.83333  0.41667  0.90618  1.0000
  Li  Li42      1.0  0.75000  0.50000  0.00000  1.0000
  Li  Li43      1.0  0.91667  0.58333  0.33333  1.0000
  Li  Li44      1.0  0.83333  0.66667  0.66667  1.0000
  Co  Co43      1.0  0.75000  0.50000  0.50000  1.0000
  Co  Co44      1.0  0.91667  0.58333  0.83333  1.0000
  Co  Co45      1.0  0.83333  0.66667  0.16667  1.0000
  O   O85       1.0  0.75000  0.50000  0.76049  1.0000
  O   O86       1.0  0.75000  0.50000  0.23951  1.0000
  O   O87       1.0  0.91667  0.58333  0.09382  1.0000
  O   O88       1.0  0.91667  0.58333  0.57284  1.0000
  O   O89       1.0  0.83333  0.66667  0.42716  1.0000
  O   O90       1.0  0.83333  0.66667  0.90618  1.0000
  Li  Li45      1.0  0.75000  0.75000  0.00000  1.0000
  Li  Li46      1.0  0.91667  0.83333  0.33333  1.0000
  Li  Li47      1.0  0.83333  0.91667  0.66667  1.0000
  Co  Co46      1.0  0.75000  0.75000  0.50000  1.0000
  Co  Co47      1.0  0.91667  0.83333  0.83333  1.0000
  Co  Co48      1.0  0.83333  0.91667  0.16667  1.0000
  O   O91       1.0  0.75000  0.75000  0.76049  1.0000
  O   O92       1.0  0.75000  0.75000  0.23951  1.0000
  O   O93       1.0  0.91667  0.83333  0.09382  1.0000
  O   O94       1.0  0.91667  0.83333  0.57284  1.0000
  O   O95       1.0  0.83333  0.91667  0.42716  1.0000
  O   O96       1.0  0.83333  0.91667  0.90618  1.0000
data_image10
_chemical_formula_structural       Li3Co3O6Li3Co3O6Li3Co3O6Li3Co3O6Li3Co3O6Li3Co3O6Li3Co3O6Li2Co3O6Li3Co3O6Li3Co3O6Li3Co3O6Li3Co3O6Li3Co3O6Li3Co3O6Li3Co3O6Li3Co3O6
_chemical_formula_sum              "Li47 Co48 O96"
_cell_length_a       11.2644
_cell_length_b       11.2644
_cell_length_c       14.0536
_cell_angle_alpha    90
_cell_angle_beta     90
_cell_angle_gamma    120

_space_group_name_H-M_alt    "P 1"
_space_group_IT_number       1

loop_
  _space_group_symop_operation_xyz
  'x, y, z'

loop_
  _atom_site_type_symbol
  _atom_site_label
  _atom_site_symmetry_multiplicity
  _atom_site_fract_x
  _atom_site_fract_y
  _atom_site_fract_z
  _atom_site_occupancy
  Li  Li1       1.0  0.03192  0.96915  0.01048  1.0000
  Li  Li2       1.0  0.16667  0.08333  0.33333  1.0000
  Li  Li3       1.0  0.08333  0.16667  0.66667  1.0000
  Co  Co1       1.0  0.00000  0.00000  0.50000  1.0000
  Co  Co2       1.0  0.16667  0.08333  0.83333  1.0000
  Co  Co3       1.0  0.08333  0.16667  0.16667  1.0000
  O   O1        1.0  0.00000  0.00000  0.76049  1.0000
  O   O2        1.0  0.00000  0.00000  0.23951  1.0000
  O   O3        1.0  0.16667  0.08333  0.09382  1.0000
  O   O4        1.0  0.16667  0.08333  0.57284  1.0000
  O   O5        1.0  0.08333  0.16667  0.42716  1.0000
  O   O6        1.0  0.08333  0.16667  0.90618  1.0000
  Li  Li4       1.0  0.00000  0.25000  0.00000  1.0000
  Li  Li5       1.0  0.16667  0.33333  0.33333  1.0000
  Li  Li6       1.0  0.08333  0.41667  0.66667  1.0000
  Co  Co4       1.0  0.00000  0.25000  0.50000  1.0000
  Co  Co5       1.0  0.16667  0.33333  0.83333  1.0000
  Co  Co6       1.0  0.08333  0.41667  0.16667  1.0000
  O   O7        1.0  0.00000  0.25000  0.76049  1.0000
  O   O8        1.0  0.00000  0.25000  0.23951  1.0000
  O   O9        1.0  0.16667  0.33333  0.09382  1.0000
  O   O10       1.0  0.16667  0.33333  0.57284  1.0000
  O   O11       1.0  0.08333  0.41667  0.42716  1.0000
  O   O12       1.0  0.08333  0.41667  0.90618  1.0000
  Li  Li7       1.0  0.00000  0.50000  0.00000  1.0000
  Li  Li8       1.0  0.16667  0.58333  0.33333  1.0000
  Li  Li9       1.0  0.08333  0.66667  0.66667  1.0000
  Co  Co7       1.0  0.00000  0.50000  0.50000  1.0000
  Co  Co8       1.0  0.16667  0.58333  0.83333  1.0000
  Co  Co9       1.0  0.08333  0.66667  0.16667  1.0000
  O   O13       1.0  0.00000  0.50000  0.76049  1.0000
  O   O14       1.0  0.00000  0.50000  0.23951  1.0000
  O   O15       1.0  0.16667  0.58333  0.09382  1.0000
  O   O16       1.0  0.16667  0.58333  0.57284  1.0000
  O   O17       1.0  0.08333  0.66667  0.42716  1.0000
  O   O18       1.0  0.08333  0.66667  0.90618  1.0000
  Li  Li10      1.0  0.00000  0.75000  0.00000  1.0000
  Li  Li11      1.0  0.16667  0.83333  0.33333  1.0000
  Li  Li12      1.0  0.08333  0.91667  0.66667  1.0000
  Co  Co10      1.0  0.00000  0.75000  0.50000  1.0000
  Co  Co11      1.0  0.16667  0.83333  0.83333  1.0000
  Co  Co12      1.0  0.08333  0.91667  0.16667  1.0000
  O   O19       1.0  0.00000  0.75000  0.76049  1.0000
  O   O20       1.0  0.00000  0.75000  0.23951  1.0000
  O   O21       1.0  0.16667  0.83333  0.09382  1.0000
  O   O22       1.0  0.16667  0.83333  0.57284  1.0000
  O   O23       1.0  0.08333  0.91667  0.42716  1.0000
  O   O24       1.0  0.08333  0.91667  0.90618  1.0000
  Li  Li13      1.0  0.25000  0.00000  0.00000  1.0000
  Li  Li14      1.0  0.41667  0.08333  0.33333  1.0000
  Li  Li15      1.0  0.33333  0.16667  0.66667  1.0000
  Co  Co13      1.0  0.25000  0.00000  0.50000  1.0000
  Co  Co14      1.0  0.41667  0.08333  0.83333  1.0000
  Co  Co15      1.0  0.33333  0.16667  0.16667  1.0000
  O   O25       1.0  0.25000  0.00000  0.76049  1.0000
  O   O26       1.0  0.25000  0.00000  0.23951  1.0000
  O   O27       1.0  0.41667  0.08333  0.09382  1.0000
  O   O28       1.0  0.41667  0.08333  0.57284  1.0000
  O   O29       1.0  0.33333  0.16667  0.42716  1.0000
  O   O30       1.0  0.33333  0.16667  0.90618  1.0000
  Li  Li16      1.0  0.25000  0.25000  0.00000  1.0000
  Li  Li17      1.0  0.41667  0.33333  0.33333  1.0000
  Li  Li18      1.0  0.33333  0.41667  0.66667  1.0000
  Co  Co16      1.0  0.25000  0.25000  0.50000  1.0000
  Co  Co17      1.0  0.41667  0.33333  0.83333  1.0000
  Co  Co18      1.0  0.33333  0.41667  0.16667  1.0000
  O   O31       1.0  0.25000  0.25000  0.76049  1.0000
  O   O32       1.0  0.25000  0.25000  0.23951  1.0000
  O   O33       1.0  0.41667  0.33333  0.09382  1.0000
  O   O34       1.0  0.41667  0.33333  0.57284  1.0000
  O   O35       1.0  0.33333  0.41667  0.42716  1.0000
  O   O36       1.0  0.33333  0.41667  0.90618  1.0000
  Li  Li19      1.0  0.25000  0.50000  0.00000  1.0000
  Li  Li20      1.0  0.41667  0.58333  0.33333  1.0000
  Li  Li21      1.0  0.33333  0.66667  0.66667  1.0000
  Co  Co19      1.0  0.25000  0.50000  0.50000  1.0000
  Co  Co20      1.0  0.41667  0.58333  0.83333  1.0000
  Co  Co21      1.0  0.33333  0.66667  0.16667  1.0000
  O   O37       1.0  0.25000  0.50000  0.76049  1.0000
  O   O38       1.0  0.25000  0.50000  0.23951  1.0000
  O   O39       1.0  0.41667  0.58333  0.09382  1.0000
  O   O40       1.0  0.41667  0.58333  0.57284  1.0000
  O   O41       1.0  0.33333  0.66667  0.42716  1.0000
  O   O42       1.0  0.33333  0.66667  0.90618  1.0000
  Li  Li22      1.0  0.41667  0.83333  0.33333  1.0000
  Li  Li23      1.0  0.33333  0.91667  0.66667  1.0000
  Co  Co22      1.0  0.25000  0.75000  0.50000  1.0000
  Co  Co23      1.0  0.41667  0.83333  0.83333  1.0000
  Co  Co24      1.0  0.33333  0.91667  0.16667  1.0000
  O   O43       1.0  0.25000  0.75000  0.76049  1.0000
  O   O44       1.0  0.25000  0.75000  0.23951  1.0000
  O   O45       1.0  0.41667  0.83333  0.09382  1.0000
  O   O46       1.0  0.41667  0.83333  0.57284  1.0000
  O   O47       1.0  0.33333  0.91667  0.42716  1.0000
  O   O48       1.0  0.33333  0.91667  0.90618  1.0000
  Li  Li24      1.0  0.50000  0.00000  0.00000  1.0000
  Li  Li25      1.0  0.66667  0.08333  0.33333  1.0000
  Li  Li26      1.0  0.58333  0.16667  0.66667  1.0000
  Co  Co25      1.0  0.50000  0.00000  0.50000  1.0000
  Co  Co26      1.0  0.66667  0.08333  0.83333  1.0000
  Co  Co27      1.0  0.58333  0.16667  0.16667  1.0000
  O   O49       1.0  0.50000  0.00000  0.76049  1.0000
  O   O50       1.0  0.50000  0.00000  0.23951  1.0000
  O   O51       1.0  0.66667  0.08333  0.09382  1.0000
  O   O52       1.0  0.66667  0.08333  0.57284  1.0000
  O   O53       1.0  0.58333  0.16667  0.42716  1.0000
  O   O54       1.0  0.58333  0.16667  0.90618  1.0000
  Li  Li27      1.0  0.50000  0.25000  0.00000  1.0000
  Li  Li28      1.0  0.66667  0.33333  0.33333  1.0000
  Li  Li29      1.0  0.58333  0.41667  0.66667  1.0000
  Co  Co28      1.0  0.50000  0.25000  0.50000  1.0000
  Co  Co29      1.0  0.66667  0.33333  0.83333  1.0000
  Co  Co30      1.0  0.58333  0.41667  0.16667  1.0000
  O   O55       1.0  0.50000  0.25000  0.76049  1.0000
  O   O56       1.0  0.50000  0.25000  0.23951  1.0000
  O   O57       1.0  0.66667  0.33333  0.09382  1.0000
  O   O58       1.0  0.66667  0.33333  0.57284  1.0000
  O   O59       1.0  0.58333  0.41667  0.42716  1.0000
  O   O60       1.0  0.58333  0.41667  0.90618  1.0000
  Li  Li30      1.0  0.50000  0.50000  0.00000  1.0000
  Li  Li31      1.0  0.66667  0.58333  0.33333  1.0000
  Li  Li32      1.0  0.58333  0.66667  0.66667  1.0000
  Co  Co31      1.0  0.50000  0.50000  0.50000  1.0000
  Co  Co32      1.0  0.66667  0.58333  0.83333  1.0000
  Co  Co33      1.0  0.58333  0.66667  0.16667  1.0000
  O   O61       1.0  0.50000  0.50000  0.76049  1.0000
  O   O62       1.0  0.50000  0.50000  0.23951  1.0000
  O   O63       1.0  0.66667  0.58333  0.09382  1.0000
  O   O64       1.0  0.66667  0.58333  0.57284  1.0000
  O   O65       1.0  0.58333  0.66667  0.42716  1.0000
  O   O66       1.0  0.58333  0.66667  0.90618  1.0000
  Li  Li33      1.0  0.50000  0.75000  0.00000  1.0000
  Li  Li34      1.0  0.66667  0.83333  0.33333  1.0000
  Li  Li35      1.0  0.58333  0.91667  0.66667  1.0000
  Co  Co34      1.0  0.50000  0.75000  0.50000  1.0000
  Co  Co35      1.0  0.66667  0.83333  0.83333  1.0000
  Co  Co36      1.0  0.58333  0.91667  0.16667  1.0000
  O   O67       1.0  0.50000  0.75000  0.76049  1.0000
  O   O68       1.0  0.50000  0.75000  0.23951  1.0000
  O   O69       1.0  0.66667  0.83333  0.09382  1.0000
  O   O70       1.0  0.66667  0.83333  0.57284  1.0000
  O   O71       1.0  0.58333  0.91667  0.42716  1.0000
  O   O72       1.0  0.58333  0.91667  0.90618  1.0000
  Li  Li36      1.0  0.75000  0.00000  0.00000  1.0000
  Li  Li37      1.0  0.91667  0.08333  0.33333  1.0000
  Li  Li38      1.0  0.83333  0.16667  0.66667  1.0000
  Co  Co37      1.0  0.75000  0.00000  0.50000  1.0000
  Co  Co38      1.0  0.91667  0.08333  0.83333  1.0000
  Co  Co39      1.0  0.83333  0.16667  0.16667  1.0000
  O   O73       1.0  0.75000  0.00000  0.76049  1.0000
  O   O74       1.0  0.75000  0.00000  0.23951  1.0000
  O   O75       1.0  0.91667  0.08333  0.09382  1.0000
  O   O76       1.0  0.91667  0.08333  0.57284  1.0000
  O   O77       1.0  0.83333  0.16667  0.42716  1.0000
  O   O78       1.0  0.83333  0.16667  0.90618  1.0000
  Li  Li39      1.0  0.75000  0.25000  0.00000  1.0000
  Li  Li40      1.0  0.91667  0.33333  0.33333  1.0000
  Li  Li41      1.0  0.83333  0.41667  0.66667  1.0000
  Co  Co40      1.0  0.75000  0.25000  0.50000  1.0000
  Co  Co41      1.0  0.91667  0.33333  0.83333  1.0000
  Co  Co42      1.0  0.83333  0.41667  0.16667  1.0000
  O   O79       1.0  0.75000  0.25000  0.76049  1.0000
  O   O80       1.0  0.75000  0.25000  0.23951  1.0000
  O   O81       1.0  0.91667  0.33333  0.09382  1.0000
  O   O82       1.0  0.91667  0.33333  0.57284  1.0000
  O   O83       1.0  0.83333  0.41667  0.42716  1.0000
  O   O84       1.0  0.83333  0.41667  0.90618  1.0000
  Li  Li42      1.0  0.75000  0.50000  0.00000  1.0000
  Li  Li43      1.0  0.91667  0.58333  0.33333  1.0000
  Li  Li44      1.0  0.83333  0.66667  0.66667  1.0000
  Co  Co43      1.0  0.75000  0.50000  0.50000  1.0000
  Co  Co44      1.0  0.91667  0.58333  0.83333  1.0000
  Co  Co45      1.0  0.83333  0.66667  0.16667  1.0000
  O   O85       1.0  0.75000  0.50000  0.76049  1.0000
  O   O86       1.0  0.75000  0.50000  0.23951  1.0000
  O   O87       1.0  0.91667  0.58333  0.09382  1.0000
  O   O88       1.0  0.91667  0.58333  0.57284  1.0000
  O   O89       1.0  0.83333  0.66667  0.42716  1.0000
  O   O90       1.0  0.83333  0.66667  0.90618  1.0000
  Li  Li45      1.0  0.75000  0.75000  0.00000  1.0000
  Li  Li46      1.0  0.91667  0.83333  0.33333  1.0000
  Li  Li47      1.0  0.83333  0.91667  0.66667  1.0000
  Co  Co46      1.0  0.75000  0.75000  0.50000  1.0000
  Co  Co47      1.0  0.91667  0.83333  0.83333  1.0000
  Co  Co48      1.0  0.83333  0.91667  0.16667  1.0000
  O   O91       1.0  0.75000  0.75000  0.76049  1.0000
  O   O92       1.0  0.75000  0.75000  0.23951  1.0000
  O   O93       1.0  0.91667  0.83333  0.09382  1.0000
  O   O94       1.0  0.91667  0.83333  0.57284  1.0000
  O   O95       1.0  0.83333  0.91667  0.42716  1.0000
  O   O96       1.0  0.83333  0.91667  0.90618  1.0000
data_image11
_chemical_formula_structural       Li3Co3O6Li3Co3O6Li3Co3O6Li3Co3O6Li3Co3O6Li3Co3O6Li3Co3O6Li2Co3O6Li3Co3O6Li3Co3O6Li3Co3O6Li3Co3O6Li3Co3O6Li3Co3O6Li3Co3O6Li3Co3O6
_chemical_formula_sum              "Li47 Co48 O96"
_cell_length_a       11.2644
_cell_length_b       11.2644
_cell_length_c       14.0536
_cell_angle_alpha    90
_cell_angle_beta     90
_cell_angle_gamma    120

_space_group_name_H-M_alt    "P 1"
_space_group_IT_number       1

loop_
  _space_group_symop_operation_xyz
  'x, y, z'

loop_
  _atom_site_type_symbol
  _atom_site_label
  _atom_site_symmetry_multiplicity
  _atom_site_fract_x
  _atom_site_fract_y
  _atom_site_fract_z
  _atom_site_occupancy
  Li  Li1       1.0  0.06324  0.93777  0.02191  1.0000
  Li  Li2       1.0  0.16667  0.08333  0.33333  1.0000
  Li  Li3       1.0  0.08333  0.16667  0.66667  1.0000
  Co  Co1       1.0  0.00000  0.00000  0.50000  1.0000
  Co  Co2       1.0  0.16667  0.08333  0.83333  1.0000
  Co  Co3       1.0  0.08333  0.16667  0.16667  1.0000
  O   O1        1.0  0.00000  0.00000  0.76049  1.0000
  O   O2        1.0  0.00000  0.00000  0.23951  1.0000
  O   O3        1.0  0.16667  0.08333  0.09382  1.0000
  O   O4        1.0  0.16667  0.08333  0.57284  1.0000
  O   O5        1.0  0.08333  0.16667  0.42716  1.0000
  O   O6        1.0  0.08333  0.16667  0.90618  1.0000
  Li  Li4       1.0  0.00000  0.25000  0.00000  1.0000
  Li  Li5       1.0  0.16667  0.33333  0.33333  1.0000
  Li  Li6       1.0  0.08333  0.41667  0.66667  1.0000
  Co  Co4       1.0  0.00000  0.25000  0.50000  1.0000
  Co  Co5       1.0  0.16667  0.33333  0.83333  1.0000
  Co  Co6       1.0  0.08333  0.41667  0.16667  1.0000
  O   O7        1.0  0.00000  0.25000  0.76049  1.0000
  O   O8        1.0  0.00000  0.25000  0.23951  1.0000
  O   O9        1.0  0.16667  0.33333  0.09382  1.0000
  O   O10       1.0  0.16667  0.33333  0.57284  1.0000
  O   O11       1.0  0.08333  0.41667  0.42716  1.0000
  O   O12       1.0  0.08333  0.41667  0.90618  1.0000
  Li  Li7       1.0  0.00000  0.50000  0.00000  1.0000
  Li  Li8       1.0  0.16667  0.58333  0.33333  1.0000
  Li  Li9       1.0  0.08333  0.66667  0.66667  1.0000
  Co  Co7       1.0  0.00000  0.50000  0.50000  1.0000
  Co  Co8       1.0  0.16667  0.58333  0.83333  1.0000
  Co  Co9       1.0  0.08333  0.66667  0.16667  1.0000
  O   O13       1.0  0.00000  0.50000  0.76049  1.0000
  O   O14       1.0  0.00000  0.50000  0.23951  1.0000
  O   O15       1.0  0.16667  0.58333  0.09382  1.0000
  O   O16       1.0  0.16667  0.58333  0.57284  1.0000
  O   O17       1.0  0.08333  0.66667  0.42716  1.0000
  O   O18       1.0  0.08333  0.66667  0.90618  1.0000
  Li  Li10      1.0  0.00000  0.75000  0.00000  1.0000
  Li  Li11      1.0  0.16667  0.83333  0.33333  1.0000
  Li  Li12      1.0  0.08333  0.91667  0.66667  1.0000
  Co  Co10      1.0  0.00000  0.75000  0.50000  1.0000
  Co  Co11      1.0  0.16667  0.83333  0.83333  1.0000
  Co  Co12      1.0  0.08333  0.91667  0.16667  1.0000
  O   O19       1.0  0.00000  0.75000  0.76049  1.0000
  O   O20       1.0  0.00000  0.75000  0.23951  1.0000
  O   O21       1.0  0.16667  0.83333  0.09382  1.0000
  O   O22       1.0  0.16667  0.83333  0.57284  1.0000
  O   O23       1.0  0.08333  0.91667  0.42716  1.0000
  O   O24       1.0  0.08333  0.91667  0.90618  1.0000
  Li  Li13      1.0  0.25000  0.00000  0.00000  1.0000
  Li  Li14      1.0  0.41667  0.08333  0.33333  1.0000
  Li  Li15      1.0  0.33333  0.16667  0.66667  1.0000
  Co  Co13      1.0  0.25000  0.00000  0.50000  1.0000
  Co  Co14      1.0  0.41667  0.08333  0.83333  1.0000
  Co  Co15      1.0  0.33333  0.16667  0.16667  1.0000
  O   O25       1.0  0.25000  0.00000  0.76049  1.0000
  O   O26       1.0  0.25000  0.00000  0.23951  1.0000
  O   O27       1.0  0.41667  0.08333  0.09382  1.0000
  O   O28       1.0  0.41667  0.08333  0.57284  1.0000
  O   O29       1.0  0.33333  0.16667  0.42716  1.0000
  O   O30       1.0  0.33333  0.16667  0.90618  1.0000
  Li  Li16      1.0  0.25000  0.25000  0.00000  1.0000
  Li  Li17      1.0  0.41667  0.33333  0.33333  1.0000
  Li  Li18      1.0  0.33333  0.41667  0.66667  1.0000
  Co  Co16      1.0  0.25000  0.25000  0.50000  1.0000
  Co  Co17      1.0  0.41667  0.33333  0.83333  1.0000
  Co  Co18      1.0  0.33333  0.41667  0.16667  1.0000
  O   O31       1.0  0.25000  0.25000  0.76049  1.0000
  O   O32       1.0  0.25000  0.25000  0.23951  1.0000
  O   O33       1.0  0.41667  0.33333  0.09382  1.0000
  O   O34       1.0  0.41667  0.33333  0.57284  1.0000
  O   O35       1.0  0.33333  0.41667  0.42716  1.0000
  O   O36       1.0  0.33333  0.41667  0.90618  1.0000
  Li  Li19      1.0  0.25000  0.50000  0.00000  1.0000
  Li  Li20      1.0  0.41667  0.58333  0.33333  1.0000
  Li  Li21      1.0  0.33333  0.66667  0.66667  1.0000
  Co  Co19      1.0  0.25000  0.50000  0.50000  1.0000
  Co  Co20      1.0  0.41667  0.58333  0.83333  1.0000
  Co  Co21      1.0  0.33333  0.66667  0.16667  1.0000
  O   O37       1.0  0.25000  0.50000  0.76049  1.0000
  O   O38       1.0  0.25000  0.50000  0.23951  1.0000
  O   O39       1.0  0.41667  0.58333  0.09382  1.0000
  O   O40       1.0  0.41667  0.58333  0.57284  1.0000
  O   O41       1.0  0.33333  0.66667  0.42716  1.0000
  O   O42       1.0  0.33333  0.66667  0.90618  1.0000
  Li  Li22      1.0  0.41667  0.83333  0.33333  1.0000
  Li  Li23      1.0  0.33333  0.91667  0.66667  1.0000
  Co  Co22      1.0  0.25000  0.75000  0.50000  1.0000
  Co  Co23      1.0  0.41667  0.83333  0.83333  1.0000
  Co  Co24      1.0  0.33333  0.91667  0.16667  1.0000
  O   O43       1.0  0.25000  0.75000  0.76049  1.0000
  O   O44       1.0  0.25000  0.75000  0.23951  1.0000
  O   O45       1.0  0.41667  0.83333  0.09382  1.0000
  O   O46       1.0  0.41667  0.83333  0.57284  1.0000
  O   O47       1.0  0.33333  0.91667  0.42716  1.0000
  O   O48       1.0  0.33333  0.91667  0.90618  1.0000
  Li  Li24      1.0  0.50000  0.00000  0.00000  1.0000
  Li  Li25      1.0  0.66667  0.08333  0.33333  1.0000
  Li  Li26      1.0  0.58333  0.16667  0.66667  1.0000
  Co  Co25      1.0  0.50000  0.00000  0.50000  1.0000
  Co  Co26      1.0  0.66667  0.08333  0.83333  1.0000
  Co  Co27      1.0  0.58333  0.16667  0.16667  1.0000
  O   O49       1.0  0.50000  0.00000  0.76049  1.0000
  O   O50       1.0  0.50000  0.00000  0.23951  1.0000
  O   O51       1.0  0.66667  0.08333  0.09382  1.0000
  O   O52       1.0  0.66667  0.08333  0.57284  1.0000
  O   O53       1.0  0.58333  0.16667  0.42716  1.0000
  O   O54       1.0  0.58333  0.16667  0.90618  1.0000
  Li  Li27      1.0  0.50000  0.25000  0.00000  1.0000
  Li  Li28      1.0  0.66667  0.33333  0.33333  1.0000
  Li  Li29      1.0  0.58333  0.41667  0.66667  1.0000
  Co  Co28      1.0  0.50000  0.25000  0.50000  1.0000
  Co  Co29      1.0  0.66667  0.33333  0.83333  1.0000
  Co  Co30      1.0  0.58333  0.41667  0.16667  1.0000
  O   O55       1.0  0.50000  0.25000  0.76049  1.0000
  O   O56       1.0  0.50000  0.25000  0.23951  1.0000
  O   O57       1.0  0.66667  0.33333  0.09382  1.0000
  O   O58       1.0  0.66667  0.33333  0.57284  1.0000
  O   O59       1.0  0.58333  0.41667  0.42716  1.0000
  O   O60       1.0  0.58333  0.41667  0.90618  1.0000
  Li  Li30      1.0  0.50000  0.50000  0.00000  1.0000
  Li  Li31      1.0  0.66667  0.58333  0.33333  1.0000
  Li  Li32      1.0  0.58333  0.66667  0.66667  1.0000
  Co  Co31      1.0  0.50000  0.50000  0.50000  1.0000
  Co  Co32      1.0  0.66667  0.58333  0.83333  1.0000
  Co  Co33      1.0  0.58333  0.66667  0.16667  1.0000
  O   O61       1.0  0.50000  0.50000  0.76049  1.0000
  O   O62       1.0  0.50000  0.50000  0.23951  1.0000
  O   O63       1.0  0.66667  0.58333  0.09382  1.0000
  O   O64       1.0  0.66667  0.58333  0.57284  1.0000
  O   O65       1.0  0.58333  0.66667  0.42716  1.0000
  O   O66       1.0  0.58333  0.66667  0.90618  1.0000
  Li  Li33      1.0  0.50000  0.75000  0.00000  1.0000
  Li  Li34      1.0  0.66667  0.83333  0.33333  1.0000
  Li  Li35      1.0  0.58333  0.91667  0.66667  1.0000
  Co  Co34      1.0  0.50000  0.75000  0.50000  1.0000
  Co  Co35      1.0  0.66667  0.83333  0.83333  1.0000
  Co  Co36      1.0  0.58333  0.91667  0.16667  1.0000
  O   O67       1.0  0.50000  0.75000  0.76049  1.0000
  O   O68       1.0  0.50000  0.75000  0.23951  1.0000
  O   O69       1.0  0.66667  0.83333  0.09382  1.0000
  O   O70       1.0  0.66667  0.83333  0.57284  1.0000
  O   O71       1.0  0.58333  0.91667  0.42716  1.0000
  O   O72       1.0  0.58333  0.91667  0.90618  1.0000
  Li  Li36      1.0  0.75000  0.00000  0.00000  1.0000
  Li  Li37      1.0  0.91667  0.08333  0.33333  1.0000
  Li  Li38      1.0  0.83333  0.16667  0.66667  1.0000
  Co  Co37      1.0  0.75000  0.00000  0.50000  1.0000
  Co  Co38      1.0  0.91667  0.08333  0.83333  1.0000
  Co  Co39      1.0  0.83333  0.16667  0.16667  1.0000
  O   O73       1.0  0.75000  0.00000  0.76049  1.0000
  O   O74       1.0  0.75000  0.00000  0.23951  1.0000
  O   O75       1.0  0.91667  0.08333  0.09382  1.0000
  O   O76       1.0  0.91667  0.08333  0.57284  1.0000
  O   O77       1.0  0.83333  0.16667  0.42716  1.0000
  O   O78       1.0  0.83333  0.16667  0.90618  1.0000
  Li  Li39      1.0  0.75000  0.25000  0.00000  1.0000
  Li  Li40      1.0  0.91667  0.33333  0.33333  1.0000
  Li  Li41      1.0  0.83333  0.41667  0.66667  1.0000
  Co  Co40      1.0  0.75000  0.25000  0.50000  1.0000
  Co  Co41      1.0  0.91667  0.33333  0.83333  1.0000
  Co  Co42      1.0  0.83333  0.41667  0.16667  1.0000
  O   O79       1.0  0.75000  0.25000  0.76049  1.0000
  O   O80       1.0  0.75000  0.25000  0.23951  1.0000
  O   O81       1.0  0.91667  0.33333  0.09382  1.0000
  O   O82       1.0  0.91667  0.33333  0.57284  1.0000
  O   O83       1.0  0.83333  0.41667  0.42716  1.0000
  O   O84       1.0  0.83333  0.41667  0.90618  1.0000
  Li  Li42      1.0  0.75000  0.50000  0.00000  1.0000
  Li  Li43      1.0  0.91667  0.58333  0.33333  1.0000
  Li  Li44      1.0  0.83333  0.66667  0.66667  1.0000
  Co  Co43      1.0  0.75000  0.50000  0.50000  1.0000
  Co  Co44      1.0  0.91667  0.58333  0.83333  1.0000
  Co  Co45      1.0  0.83333  0.66667  0.16667  1.0000
  O   O85       1.0  0.75000  0.50000  0.76049  1.0000
  O   O86       1.0  0.75000  0.50000  0.23951  1.0000
  O   O87       1.0  0.91667  0.58333  0.09382  1.0000
  O   O88       1.0  0.91667  0.58333  0.57284  1.0000
  O   O89       1.0  0.83333  0.66667  0.42716  1.0000
  O   O90       1.0  0.83333  0.66667  0.90618  1.0000
  Li  Li45      1.0  0.75000  0.75000  0.00000  1.0000
  Li  Li46      1.0  0.91667  0.83333  0.33333  1.0000
  Li  Li47      1.0  0.83333  0.91667  0.66667  1.0000
  Co  Co46      1.0  0.75000  0.75000  0.50000  1.0000
  Co  Co47      1.0  0.91667  0.83333  0.83333  1.0000
  Co  Co48      1.0  0.83333  0.91667  0.16667  1.0000
  O   O91       1.0  0.75000  0.75000  0.76049  1.0000
  O   O92       1.0  0.75000  0.75000  0.23951  1.0000
  O   O93       1.0  0.91667  0.83333  0.09382  1.0000
  O   O94       1.0  0.91667  0.83333  0.57284  1.0000
  O   O95       1.0  0.83333  0.91667  0.42716  1.0000
  O   O96       1.0  0.83333  0.91667  0.90618  1.0000
data_image12
_chemical_formula_structural       Li3Co3O6Li3Co3O6Li3Co3O6Li3Co3O6Li3Co3O6Li3Co3O6Li3Co3O6Li2Co3O6Li3Co3O6Li3Co3O6Li3Co3O6Li3Co3O6Li3Co3O6Li3Co3O6Li3Co3O6Li3Co3O6
_chemical_formula_sum              "Li47 Co48 O96"
_cell_length_a       11.2644
_cell_length_b       11.2644
_cell_length_c       14.0536
_cell_angle_alpha    90
_cell_angle_beta     90
_cell_angle_gamma    120

_space_group_name_H-M_alt    "P 1"
_space_group_IT_number       1

loop_
  _space_group_symop_operation_xyz
  'x, y, z'

loop_
  _atom_site_type_symbol
  _atom_site_label
  _atom_site_symmetry_multiplicity
  _atom_site_fract_x
  _atom_site_fract_y
  _atom_site_fract_z
  _atom_site_occupancy
  Li  Li1       1.0  0.09531  0.90491  0.02153  1.0000
  Li  Li2       1.0  0.16667  0.08333  0.33333  1.0000
  Li  Li3       1.0  0.08333  0.16667  0.66667  1.0000
  Co  Co1       1.0  0.00000  0.00000  0.50000  1.0000
  Co  Co2       1.0  0.16667  0.08333  0.83333  1.0000
  Co  Co3       1.0  0.08333  0.16667  0.16667  1.0000
  O   O1        1.0  0.00000  0.00000  0.76049  1.0000
  O   O2        1.0  0.00000  0.00000  0.23951  1.0000
  O   O3        1.0  0.16667  0.08333  0.09382  1.0000
  O   O4        1.0  0.16667  0.08333  0.57284  1.0000
  O   O5        1.0  0.08333  0.16667  0.42716  1.0000
  O   O6        1.0  0.08333  0.16667  0.90618  1.0000
  Li  Li4       1.0  0.00000  0.25000  0.00000  1.0000
  Li  Li5       1.0  0.16667  0.33333  0.33333  1.0000
  Li  Li6       1.0  0.08333  0.41667  0.66667  1.0000
  Co  Co4       1.0  0.00000  0.25000  0.50000  1.0000
  Co  Co5       1.0  0.16667  0.33333  0.83333  1.0000
  Co  Co6       1.0  0.08333  0.41667  0.16667  1.0000
  O   O7        1.0  0.00000  0.25000  0.76049  1.0000
  O   O8        1.0  0.00000  0.25000  0.23951  1.0000
  O   O9        1.0  0.16667  0.33333  0.09382  1.0000
  O   O10       1.0  0.16667  0.33333  0.57284  1.0000
  O   O11       1.0  0.08333  0.41667  0.42716  1.0000
  O   O12       1.0  0.08333  0.41667  0.90618  1.0000
  Li  Li7       1.0  0.00000  0.50000  0.00000  1.0000
  Li  Li8       1.0  0.16667  0.58333  0.33333  1.0000
  Li  Li9       1.0  0.08333  0.66667  0.66667  1.0000
  Co  Co7       1.0  0.00000  0.50000  0.50000  1.0000
  Co  Co8       1.0  0.16667  0.58333  0.83333  1.0000
  Co  Co9       1.0  0.08333  0.66667  0.16667  1.0000
  O   O13       1.0  0.00000  0.50000  0.76049  1.0000
  O   O14       1.0  0.00000  0.50000  0.23951  1.0000
  O   O15       1.0  0.16667  0.58333  0.09382  1.0000
  O   O16       1.0  0.16667  0.58333  0.57284  1.0000
  O   O17       1.0  0.08333  0.66667  0.42716  1.0000
  O   O18       1.0  0.08333  0.66667  0.90618  1.0000
  Li  Li10      1.0  0.00000  0.75000  0.00000  1.0000
  Li  Li11      1.0  0.16667  0.83333  0.33333  1.0000
  Li  Li12      1.0  0.08333  0.91667  0.66667  1.0000
  Co  Co10      1.0  0.00000  0.75000  0.50000  1.0000
  Co  Co11      1.0  0.16667  0.83333  0.83333  1.0000
  Co  Co12      1.0  0.08333  0.91667  0.16667  1.0000
  O   O19       1.0  0.00000  0.75000  0.76049  1.0000
  O   O20       1.0  0.00000  0.75000  0.23951  1.0000
  O   O21       1.0  0.16667  0.83333  0.09382  1.0000
  O   O22       1.0  0.16667  0.83333  0.57284  1.0000
  O   O23       1.0  0.08333  0.91667  0.42716  1.0000
  O   O24       1.0  0.08333  0.91667  0.90618  1.0000
  Li  Li13      1.0  0.25000  0.00000  0.00000  1.0000
  Li  Li14      1.0  0.41667  0.08333  0.33333  1.0000
  Li  Li15      1.0  0.33333  0.16667  0.66667  1.0000
  Co  Co13      1.0  0.25000  0.00000  0.50000  1.0000
  Co  Co14      1.0  0.41667  0.08333  0.83333  1.0000
  Co  Co15      1.0  0.33333  0.16667  0.16667  1.0000
  O   O25       1.0  0.25000  0.00000  0.76049  1.0000
  O   O26       1.0  0.25000  0.00000  0.23951  1.0000
  O   O27       1.0  0.41667  0.08333  0.09382  1.0000
  O   O28       1.0  0.41667  0.08333  0.57284  1.0000
  O   O29       1.0  0.33333  0.16667  0.42716  1.0000
  O   O30       1.0  0.33333  0.16667  0.90618  1.0000
  Li  Li16      1.0  0.25000  0.25000  0.00000  1.0000
  Li  Li17      1.0  0.41667  0.33333  0.33333  1.0000
  Li  Li18      1.0  0.33333  0.41667  0.66667  1.0000
  Co  Co16      1.0  0.25000  0.25000  0.50000  1.0000
  Co  Co17      1.0  0.41667  0.33333  0.83333  1.0000
  Co  Co18      1.0  0.33333  0.41667  0.16667  1.0000
  O   O31       1.0  0.25000  0.25000  0.76049  1.0000
  O   O32       1.0  0.25000  0.25000  0.23951  1.0000
  O   O33       1.0  0.41667  0.33333  0.09382  1.0000
  O   O34       1.0  0.41667  0.33333  0.57284  1.0000
  O   O35       1.0  0.33333  0.41667  0.42716  1.0000
  O   O36       1.0  0.33333  0.41667  0.90618  1.0000
  Li  Li19      1.0  0.25000  0.50000  0.00000  1.0000
  Li  Li20      1.0  0.41667  0.58333  0.33333  1.0000
  Li  Li21      1.0  0.33333  0.66667  0.66667  1.0000
  Co  Co19      1.0  0.25000  0.50000  0.50000  1.0000
  Co  Co20      1.0  0.41667  0.58333  0.83333  1.0000
  Co  Co21      1.0  0.33333  0.66667  0.16667  1.0000
  O   O37       1.0  0.25000  0.50000  0.76049  1.0000
  O   O38       1.0  0.25000  0.50000  0.23951  1.0000
  O   O39       1.0  0.41667  0.58333  0.09382  1.0000
  O   O40       1.0  0.41667  0.58333  0.57284  1.0000
  O   O41       1.0  0.33333  0.66667  0.42716  1.0000
  O   O42       1.0  0.33333  0.66667  0.90618  1.0000
  Li  Li22      1.0  0.41667  0.83333  0.33333  1.0000
  Li  Li23      1.0  0.33333  0.91667  0.66667  1.0000
  Co  Co22      1.0  0.25000  0.75000  0.50000  1.0000
  Co  Co23      1.0  0.41667  0.83333  0.83333  1.0000
  Co  Co24      1.0  0.33333  0.91667  0.16667  1.0000
  O   O43       1.0  0.25000  0.75000  0.76049  1.0000
  O   O44       1.0  0.25000  0.75000  0.23951  1.0000
  O   O45       1.0  0.41667  0.83333  0.09382  1.0000
  O   O46       1.0  0.41667  0.83333  0.57284  1.0000
  O   O47       1.0  0.33333  0.91667  0.42716  1.0000
  O   O48       1.0  0.33333  0.91667  0.90618  1.0000
  Li  Li24      1.0  0.50000  0.00000  0.00000  1.0000
  Li  Li25      1.0  0.66667  0.08333  0.33333  1.0000
  Li  Li26      1.0  0.58333  0.16667  0.66667  1.0000
  Co  Co25      1.0  0.50000  0.00000  0.50000  1.0000
  Co  Co26      1.0  0.66667  0.08333  0.83333  1.0000
  Co  Co27      1.0  0.58333  0.16667  0.16667  1.0000
  O   O49       1.0  0.50000  0.00000  0.76049  1.0000
  O   O50       1.0  0.50000  0.00000  0.23951  1.0000
  O   O51       1.0  0.66667  0.08333  0.09382  1.0000
  O   O52       1.0  0.66667  0.08333  0.57284  1.0000
  O   O53       1.0  0.58333  0.16667  0.42716  1.0000
  O   O54       1.0  0.58333  0.16667  0.90618  1.0000
  Li  Li27      1.0  0.50000  0.25000  0.00000  1.0000
  Li  Li28      1.0  0.66667  0.33333  0.33333  1.0000
  Li  Li29      1.0  0.58333  0.41667  0.66667  1.0000
  Co  Co28      1.0  0.50000  0.25000  0.50000  1.0000
  Co  Co29      1.0  0.66667  0.33333  0.83333  1.0000
  Co  Co30      1.0  0.58333  0.41667  0.16667  1.0000
  O   O55       1.0  0.50000  0.25000  0.76049  1.0000
  O   O56       1.0  0.50000  0.25000  0.23951  1.0000
  O   O57       1.0  0.66667  0.33333  0.09382  1.0000
  O   O58       1.0  0.66667  0.33333  0.57284  1.0000
  O   O59       1.0  0.58333  0.41667  0.42716  1.0000
  O   O60       1.0  0.58333  0.41667  0.90618  1.0000
  Li  Li30      1.0  0.50000  0.50000  0.00000  1.0000
  Li  Li31      1.0  0.66667  0.58333  0.33333  1.0000
  Li  Li32      1.0  0.58333  0.66667  0.66667  1.0000
  Co  Co31      1.0  0.50000  0.50000  0.50000  1.0000
  Co  Co32      1.0  0.66667  0.58333  0.83333  1.0000
  Co  Co33      1.0  0.58333  0.66667  0.16667  1.0000
  O   O61       1.0  0.50000  0.50000  0.76049  1.0000
  O   O62       1.0  0.50000  0.50000  0.23951  1.0000
  O   O63       1.0  0.66667  0.58333  0.09382  1.0000
  O   O64       1.0  0.66667  0.58333  0.57284  1.0000
  O   O65       1.0  0.58333  0.66667  0.42716  1.0000
  O   O66       1.0  0.58333  0.66667  0.90618  1.0000
  Li  Li33      1.0  0.50000  0.75000  0.00000  1.0000
  Li  Li34      1.0  0.66667  0.83333  0.33333  1.0000
  Li  Li35      1.0  0.58333  0.91667  0.66667  1.0000
  Co  Co34      1.0  0.50000  0.75000  0.50000  1.0000
  Co  Co35      1.0  0.66667  0.83333  0.83333  1.0000
  Co  Co36      1.0  0.58333  0.91667  0.16667  1.0000
  O   O67       1.0  0.50000  0.75000  0.76049  1.0000
  O   O68       1.0  0.50000  0.75000  0.23951  1.0000
  O   O69       1.0  0.66667  0.83333  0.09382  1.0000
  O   O70       1.0  0.66667  0.83333  0.57284  1.0000
  O   O71       1.0  0.58333  0.91667  0.42716  1.0000
  O   O72       1.0  0.58333  0.91667  0.90618  1.0000
  Li  Li36      1.0  0.75000  0.00000  0.00000  1.0000
  Li  Li37      1.0  0.91667  0.08333  0.33333  1.0000
  Li  Li38      1.0  0.83333  0.16667  0.66667  1.0000
  Co  Co37      1.0  0.75000  0.00000  0.50000  1.0000
  Co  Co38      1.0  0.91667  0.08333  0.83333  1.0000
  Co  Co39      1.0  0.83333  0.16667  0.16667  1.0000
  O   O73       1.0  0.75000  0.00000  0.76049  1.0000
  O   O74       1.0  0.75000  0.00000  0.23951  1.0000
  O   O75       1.0  0.91667  0.08333  0.09382  1.0000
  O   O76       1.0  0.91667  0.08333  0.57284  1.0000
  O   O77       1.0  0.83333  0.16667  0.42716  1.0000
  O   O78       1.0  0.83333  0.16667  0.90618  1.0000
  Li  Li39      1.0  0.75000  0.25000  0.00000  1.0000
  Li  Li40      1.0  0.91667  0.33333  0.33333  1.0000
  Li  Li41      1.0  0.83333  0.41667  0.66667  1.0000
  Co  Co40      1.0  0.75000  0.25000  0.50000  1.0000
  Co  Co41      1.0  0.91667  0.33333  0.83333  1.0000
  Co  Co42      1.0  0.83333  0.41667  0.16667  1.0000
  O   O79       1.0  0.75000  0.25000  0.76049  1.0000
  O   O80       1.0  0.75000  0.25000  0.23951  1.0000
  O   O81       1.0  0.91667  0.33333  0.09382  1.0000
  O   O82       1.0  0.91667  0.33333  0.57284  1.0000
  O   O83       1.0  0.83333  0.41667  0.42716  1.0000
  O   O84       1.0  0.83333  0.41667  0.90618  1.0000
  Li  Li42      1.0  0.75000  0.50000  0.00000  1.0000
  Li  Li43      1.0  0.91667  0.58333  0.33333  1.0000
  Li  Li44      1.0  0.83333  0.66667  0.66667  1.0000
  Co  Co43      1.0  0.75000  0.50000  0.50000  1.0000
  Co  Co44      1.0  0.91667  0.58333  0.83333  1.0000
  Co  Co45      1.0  0.83333  0.66667  0.16667  1.0000
  O   O85       1.0  0.75000  0.50000  0.76049  1.0000
  O   O86       1.0  0.75000  0.50000  0.23951  1.0000
  O   O87       1.0  0.91667  0.58333  0.09382  1.0000
  O   O88       1.0  0.91667  0.58333  0.57284  1.0000
  O   O89       1.0  0.83333  0.66667  0.42716  1.0000
  O   O90       1.0  0.83333  0.66667  0.90618  1.0000
  Li  Li45      1.0  0.75000  0.75000  0.00000  1.0000
  Li  Li46      1.0  0.91667  0.83333  0.33333  1.0000
  Li  Li47      1.0  0.83333  0.91667  0.66667  1.0000
  Co  Co46      1.0  0.75000  0.75000  0.50000  1.0000
  Co  Co47      1.0  0.91667  0.83333  0.83333  1.0000
  Co  Co48      1.0  0.83333  0.91667  0.16667  1.0000
  O   O91       1.0  0.75000  0.75000  0.76049  1.0000
  O   O92       1.0  0.75000  0.75000  0.23951  1.0000
  O   O93       1.0  0.91667  0.83333  0.09382  1.0000
  O   O94       1.0  0.91667  0.83333  0.57284  1.0000
  O   O95       1.0  0.83333  0.91667  0.42716  1.0000
  O   O96       1.0  0.83333  0.91667  0.90618  1.0000
data_image13
_chemical_formula_structural       Li3Co3O6Li3Co3O6Li3Co3O6Li3Co3O6Li3Co3O6Li3Co3O6Li3Co3O6Li2Co3O6Li3Co3O6Li3Co3O6Li3Co3O6Li3Co3O6Li3Co3O6Li3Co3O6Li3Co3O6Li3Co3O6
_chemical_formula_sum              "Li47 Co48 O96"
_cell_length_a       11.2644
_cell_length_b       11.2644
_cell_length_c       14.0536
_cell_angle_alpha    90
_cell_angle_beta     90
_cell_angle_gamma    120

_space_group_name_H-M_alt    "P 1"
_space_group_IT_number       1

loop_
  _space_group_symop_operation_xyz
  'x, y, z'

loop_
  _atom_site_type_symbol
  _atom_site_label
  _atom_site_symmetry_multiplicity
  _atom_site_fract_x
  _atom_site_fract_y
  _atom_site_fract_z
  _atom_site_occupancy
  Li  Li1       1.0  0.12304  0.87455  0.00059  1.0000
  Li  Li2       1.0  0.16667  0.08333  0.33333  1.0000
  Li  Li3       1.0  0.08333  0.16667  0.66667  1.0000
  Co  Co1       1.0  0.00000  0.00000  0.50000  1.0000
  Co  Co2       1.0  0.16667  0.08333  0.83333  1.0000
  Co  Co3       1.0  0.08333  0.16667  0.16667  1.0000
  O   O1        1.0  0.00000  0.00000  0.76049  1.0000
  O   O2        1.0  0.00000  0.00000  0.23951  1.0000
  O   O3        1.0  0.16667  0.08333  0.09382  1.0000
  O   O4        1.0  0.16667  0.08333  0.57284  1.0000
  O   O5        1.0  0.08333  0.16667  0.42716  1.0000
  O   O6        1.0  0.08333  0.16667  0.90618  1.0000
  Li  Li4       1.0  0.00000  0.25000  0.00000  1.0000
  Li  Li5       1.0  0.16667  0.33333  0.33333  1.0000
  Li  Li6       1.0  0.08333  0.41667  0.66667  1.0000
  Co  Co4       1.0  0.00000  0.25000  0.50000  1.0000
  Co  Co5       1.0  0.16667  0.33333  0.83333  1.0000
  Co  Co6       1.0  0.08333  0.41667  0.16667  1.0000
  O   O7        1.0  0.00000  0.25000  0.76049  1.0000
  O   O8        1.0  0.00000  0.25000  0.23951  1.0000
  O   O9        1.0  0.16667  0.33333  0.09382  1.0000
  O   O10       1.0  0.16667  0.33333  0.57284  1.0000
  O   O11       1.0  0.08333  0.41667  0.42716  1.0000
  O   O12       1.0  0.08333  0.41667  0.90618  1.0000
  Li  Li7       1.0  0.00000  0.50000  0.00000  1.0000
  Li  Li8       1.0  0.16667  0.58333  0.33333  1.0000
  Li  Li9       1.0  0.08333  0.66667  0.66667  1.0000
  Co  Co7       1.0  0.00000  0.50000  0.50000  1.0000
  Co  Co8       1.0  0.16667  0.58333  0.83333  1.0000
  Co  Co9       1.0  0.08333  0.66667  0.16667  1.0000
  O   O13       1.0  0.00000  0.50000  0.76049  1.0000
  O   O14       1.0  0.00000  0.50000  0.23951  1.0000
  O   O15       1.0  0.16667  0.58333  0.09382  1.0000
  O   O16       1.0  0.16667  0.58333  0.57284  1.0000
  O   O17       1.0  0.08333  0.66667  0.42716  1.0000
  O   O18       1.0  0.08333  0.66667  0.90618  1.0000
  Li  Li10      1.0  0.00000  0.75000  0.00000  1.0000
  Li  Li11      1.0  0.16667  0.83333  0.33333  1.0000
  Li  Li12      1.0  0.08333  0.91667  0.66667  1.0000
  Co  Co10      1.0  0.00000  0.75000  0.50000  1.0000
  Co  Co11      1.0  0.16667  0.83333  0.83333  1.0000
  Co  Co12      1.0  0.08333  0.91667  0.16667  1.0000
  O   O19       1.0  0.00000  0.75000  0.76049  1.0000
  O   O20       1.0  0.00000  0.75000  0.23951  1.0000
  O   O21       1.0  0.16667  0.83333  0.09382  1.0000
  O   O22       1.0  0.16667  0.83333  0.57284  1.0000
  O   O23       1.0  0.08333  0.91667  0.42716  1.0000
  O   O24       1.0  0.08333  0.91667  0.90618  1.0000
  Li  Li13      1.0  0.25000  0.00000  0.00000  1.0000
  Li  Li14      1.0  0.41667  0.08333  0.33333  1.0000
  Li  Li15      1.0  0.33333  0.16667  0.66667  1.0000
  Co  Co13      1.0  0.25000  0.00000  0.50000  1.0000
  Co  Co14      1.0  0.41667  0.08333  0.83333  1.0000
  Co  Co15      1.0  0.33333  0.16667  0.16667  1.0000
  O   O25       1.0  0.25000  0.00000  0.76049  1.0000
  O   O26       1.0  0.25000  0.00000  0.23951  1.0000
  O   O27       1.0  0.41667  0.08333  0.09382  1.0000
  O   O28       1.0  0.41667  0.08333  0.57284  1.0000
  O   O29       1.0  0.33333  0.16667  0.42716  1.0000
  O   O30       1.0  0.33333  0.16667  0.90618  1.0000
  Li  Li16      1.0  0.25000  0.25000  0.00000  1.0000
  Li  Li17      1.0  0.41667  0.33333  0.33333  1.0000
  Li  Li18      1.0  0.33333  0.41667  0.66667  1.0000
  Co  Co16      1.0  0.25000  0.25000  0.50000  1.0000
  Co  Co17      1.0  0.41667  0.33333  0.83333  1.0000
  Co  Co18      1.0  0.33333  0.41667  0.16667  1.0000
  O   O31       1.0  0.25000  0.25000  0.76049  1.0000
  O   O32       1.0  0.25000  0.25000  0.23951  1.0000
  O   O33       1.0  0.41667  0.33333  0.09382  1.0000
  O   O34       1.0  0.41667  0.33333  0.57284  1.0000
  O   O35       1.0  0.33333  0.41667  0.42716  1.0000
  O   O36       1.0  0.33333  0.41667  0.90618  1.0000
  Li  Li19      1.0  0.25000  0.50000  0.00000  1.0000
  Li  Li20      1.0  0.41667  0.58333  0.33333  1.0000
  Li  Li21      1.0  0.33333  0.66667  0.66667  1.0000
  Co  Co19      1.0  0.25000  0.50000  0.50000  1.0000
  Co  Co20      1.0  0.41667  0.58333  0.83333  1.0000
  Co  Co21      1.0  0.33333  0.66667  0.16667  1.0000
  O   O37       1.0  0.25000  0.50000  0.76049  1.0000
  O   O38       1.0  0.25000  0.50000  0.23951  1.0000
  O   O39       1.0  0.41667  0.58333  0.09382  1.0000
  O   O40       1.0  0.41667  0.58333  0.57284  1.0000
  O   O41       1.0  0.33333  0.66667  0.42716  1.0000
  O   O42       1.0  0.33333  0.66667  0.90618  1.0000
  Li  Li22      1.0  0.41667  0.83333  0.33333  1.0000
  Li  Li23      1.0  0.33333  0.91667  0.66667  1.0000
  Co  Co22      1.0  0.25000  0.75000  0.50000  1.0000
  Co  Co23      1.0  0.41667  0.83333  0.83333  1.0000
  Co  Co24      1.0  0.33333  0.91667  0.16667  1.0000
  O   O43       1.0  0.25000  0.75000  0.76049  1.0000
  O   O44       1.0  0.25000  0.75000  0.23951  1.0000
  O   O45       1.0  0.41667  0.83333  0.09382  1.0000
  O   O46       1.0  0.41667  0.83333  0.57284  1.0000
  O   O47       1.0  0.33333  0.91667  0.42716  1.0000
  O   O48       1.0  0.33333  0.91667  0.90618  1.0000
  Li  Li24      1.0  0.50000  0.00000  0.00000  1.0000
  Li  Li25      1.0  0.66667  0.08333  0.33333  1.0000
  Li  Li26      1.0  0.58333  0.16667  0.66667  1.0000
  Co  Co25      1.0  0.50000  0.00000  0.50000  1.0000
  Co  Co26      1.0  0.66667  0.08333  0.83333  1.0000
  Co  Co27      1.0  0.58333  0.16667  0.16667  1.0000
  O   O49       1.0  0.50000  0.00000  0.76049  1.0000
  O   O50       1.0  0.50000  0.00000  0.23951  1.0000
  O   O51       1.0  0.66667  0.08333  0.09382  1.0000
  O   O52       1.0  0.66667  0.08333  0.57284  1.0000
  O   O53       1.0  0.58333  0.16667  0.42716  1.0000
  O   O54       1.0  0.58333  0.16667  0.90618  1.0000
  Li  Li27      1.0  0.50000  0.25000  0.00000  1.0000
  Li  Li28      1.0  0.66667  0.33333  0.33333  1.0000
  Li  Li29      1.0  0.58333  0.41667  0.66667  1.0000
  Co  Co28      1.0  0.50000  0.25000  0.50000  1.0000
  Co  Co29      1.0  0.66667  0.33333  0.83333  1.0000
  Co  Co30      1.0  0.58333  0.41667  0.16667  1.0000
  O   O55       1.0  0.50000  0.25000  0.76049  1.0000
  O   O56       1.0  0.50000  0.25000  0.23951  1.0000
  O   O57       1.0  0.66667  0.33333  0.09382  1.0000
  O   O58       1.0  0.66667  0.33333  0.57284  1.0000
  O   O59       1.0  0.58333  0.41667  0.42716  1.0000
  O   O60       1.0  0.58333  0.41667  0.90618  1.0000
  Li  Li30      1.0  0.50000  0.50000  0.00000  1.0000
  Li  Li31      1.0  0.66667  0.58333  0.33333  1.0000
  Li  Li32      1.0  0.58333  0.66667  0.66667  1.0000
  Co  Co31      1.0  0.50000  0.50000  0.50000  1.0000
  Co  Co32      1.0  0.66667  0.58333  0.83333  1.0000
  Co  Co33      1.0  0.58333  0.66667  0.16667  1.0000
  O   O61       1.0  0.50000  0.50000  0.76049  1.0000
  O   O62       1.0  0.50000  0.50000  0.23951  1.0000
  O   O63       1.0  0.66667  0.58333  0.09382  1.0000
  O   O64       1.0  0.66667  0.58333  0.57284  1.0000
  O   O65       1.0  0.58333  0.66667  0.42716  1.0000
  O   O66       1.0  0.58333  0.66667  0.90618  1.0000
  Li  Li33      1.0  0.50000  0.75000  0.00000  1.0000
  Li  Li34      1.0  0.66667  0.83333  0.33333  1.0000
  Li  Li35      1.0  0.58333  0.91667  0.66667  1.0000
  Co  Co34      1.0  0.50000  0.75000  0.50000  1.0000
  Co  Co35      1.0  0.66667  0.83333  0.83333  1.0000
  Co  Co36      1.0  0.58333  0.91667  0.16667  1.0000
  O   O67       1.0  0.50000  0.75000  0.76049  1.0000
  O   O68       1.0  0.50000  0.75000  0.23951  1.0000
  O   O69       1.0  0.66667  0.83333  0.09382  1.0000
  O   O70       1.0  0.66667  0.83333  0.57284  1.0000
  O   O71       1.0  0.58333  0.91667  0.42716  1.0000
  O   O72       1.0  0.58333  0.91667  0.90618  1.0000
  Li  Li36      1.0  0.75000  0.00000  0.00000  1.0000
  Li  Li37      1.0  0.91667  0.08333  0.33333  1.0000
  Li  Li38      1.0  0.83333  0.16667  0.66667  1.0000
  Co  Co37      1.0  0.75000  0.00000  0.50000  1.0000
  Co  Co38      1.0  0.91667  0.08333  0.83333  1.0000
  Co  Co39      1.0  0.83333  0.16667  0.16667  1.0000
  O   O73       1.0  0.75000  0.00000  0.76049  1.0000
  O   O74       1.0  0.75000  0.00000  0.23951  1.0000
  O   O75       1.0  0.91667  0.08333  0.09382  1.0000
  O   O76       1.0  0.91667  0.08333  0.57284  1.0000
  O   O77       1.0  0.83333  0.16667  0.42716  1.0000
  O   O78       1.0  0.83333  0.16667  0.90618  1.0000
  Li  Li39      1.0  0.75000  0.25000  0.00000  1.0000
  Li  Li40      1.0  0.91667  0.33333  0.33333  1.0000
  Li  Li41      1.0  0.83333  0.41667  0.66667  1.0000
  Co  Co40      1.0  0.75000  0.25000  0.50000  1.0000
  Co  Co41      1.0  0.91667  0.33333  0.83333  1.0000
  Co  Co42      1.0  0.83333  0.41667  0.16667  1.0000
  O   O79       1.0  0.75000  0.25000  0.76049  1.0000
  O   O80       1.0  0.75000  0.25000  0.23951  1.0000
  O   O81       1.0  0.91667  0.33333  0.09382  1.0000
  O   O82       1.0  0.91667  0.33333  0.57284  1.0000
  O   O83       1.0  0.83333  0.41667  0.42716  1.0000
  O   O84       1.0  0.83333  0.41667  0.90618  1.0000
  Li  Li42      1.0  0.75000  0.50000  0.00000  1.0000
  Li  Li43      1.0  0.91667  0.58333  0.33333  1.0000
  Li  Li44      1.0  0.83333  0.66667  0.66667  1.0000
  Co  Co43      1.0  0.75000  0.50000  0.50000  1.0000
  Co  Co44      1.0  0.91667  0.58333  0.83333  1.0000
  Co  Co45      1.0  0.83333  0.66667  0.16667  1.0000
  O   O85       1.0  0.75000  0.50000  0.76049  1.0000
  O   O86       1.0  0.75000  0.50000  0.23951  1.0000
  O   O87       1.0  0.91667  0.58333  0.09382  1.0000
  O   O88       1.0  0.91667  0.58333  0.57284  1.0000
  O   O89       1.0  0.83333  0.66667  0.42716  1.0000
  O   O90       1.0  0.83333  0.66667  0.90618  1.0000
  Li  Li45      1.0  0.75000  0.75000  0.00000  1.0000
  Li  Li46      1.0  0.91667  0.83333  0.33333  1.0000
  Li  Li47      1.0  0.83333  0.91667  0.66667  1.0000
  Co  Co46      1.0  0.75000  0.75000  0.50000  1.0000
  Co  Co47      1.0  0.91667  0.83333  0.83333  1.0000
  Co  Co48      1.0  0.83333  0.91667  0.16667  1.0000
  O   O91       1.0  0.75000  0.75000  0.76049  1.0000
  O   O92       1.0  0.75000  0.75000  0.23951  1.0000
  O   O93       1.0  0.91667  0.83333  0.09382  1.0000
  O   O94       1.0  0.91667  0.83333  0.57284  1.0000
  O   O95       1.0  0.83333  0.91667  0.42716  1.0000
  O   O96       1.0  0.83333  0.91667  0.90618  1.0000
data_image14
_chemical_formula_structural       Li3Co3O6Li3Co3O6Li3Co3O6Li3Co3O6Li3Co3O6Li3Co3O6Li3Co3O6Li2Co3O6Li3Co3O6Li3Co3O6Li3Co3O6Li3Co3O6Li3Co3O6Li3Co3O6Li3Co3O6Li3Co3O6
_chemical_formula_sum              "Li47 Co48 O96"
_cell_length_a       11.2644
_cell_length_b       11.2644
_cell_length_c       14.0536
_cell_angle_alpha    90
_cell_angle_beta     90
_cell_angle_gamma    120

_space_group_name_H-M_alt    "P 1"
_space_group_IT_number       1

loop_
  _space_group_symop_operation_xyz
  'x, y, z'

loop_
  _atom_site_type_symbol
  _atom_site_label
  _atom_site_symmetry_multiplicity
  _atom_site_fract_x
  _atom_site_fract_y
  _atom_site_fract_z
  _atom_site_occupancy
  Li  Li1       1.0  0.15293  0.84637  0.97927  1.0000
  Li  Li2       1.0  0.16667  0.08333  0.33333  1.0000
  Li  Li3       1.0  0.08333  0.16667  0.66667  1.0000
  Co  Co1       1.0  0.00000  0.00000  0.50000  1.0000
  Co  Co2       1.0  0.16667  0.08333  0.83333  1.0000
  Co  Co3       1.0  0.08333  0.16667  0.16667  1.0000
  O   O1        1.0  0.00000  0.00000  0.76049  1.0000
  O   O2        1.0  0.00000  0.00000  0.23951  1.0000
  O   O3        1.0  0.16667  0.08333  0.09382  1.0000
  O   O4        1.0  0.16667  0.08333  0.57284  1.0000
  O   O5        1.0  0.08333  0.16667  0.42716  1.0000
  O   O6        1.0  0.08333  0.16667  0.90618  1.0000
  Li  Li4       1.0  0.00000  0.25000  0.00000  1.0000
  Li  Li5       1.0  0.16667  0.33333  0.33333  1.0000
  Li  Li6       1.0  0.08333  0.41667  0.66667  1.0000
  Co  Co4       1.0  0.00000  0.25000  0.50000  1.0000
  Co  Co5       1.0  0.16667  0.33333  0.83333  1.0000
  Co  Co6       1.0  0.08333  0.41667  0.16667  1.0000
  O   O7        1.0  0.00000  0.25000  0.76049  1.0000
  O   O8        1.0  0.00000  0.25000  0.23951  1.0000
  O   O9        1.0  0.16667  0.33333  0.09382  1.0000
  O   O10       1.0  0.16667  0.33333  0.57284  1.0000
  O   O11       1.0  0.08333  0.41667  0.42716  1.0000
  O   O12       1.0  0.08333  0.41667  0.90618  1.0000
  Li  Li7       1.0  0.00000  0.50000  0.00000  1.0000
  Li  Li8       1.0  0.16667  0.58333  0.33333  1.0000
  Li  Li9       1.0  0.08333  0.66667  0.66667  1.0000
  Co  Co7       1.0  0.00000  0.50000  0.50000  1.0000
  Co  Co8       1.0  0.16667  0.58333  0.83333  1.0000
  Co  Co9       1.0  0.08333  0.66667  0.16667  1.0000
  O   O13       1.0  0.00000  0.50000  0.76049  1.0000
  O   O14       1.0  0.00000  0.50000  0.23951  1.0000
  O   O15       1.0  0.16667  0.58333  0.09382  1.0000
  O   O16       1.0  0.16667  0.58333  0.57284  1.0000
  O   O17       1.0  0.08333  0.66667  0.42716  1.0000
  O   O18       1.0  0.08333  0.66667  0.90618  1.0000
  Li  Li10      1.0  0.00000  0.75000  0.00000  1.0000
  Li  Li11      1.0  0.16667  0.83333  0.33333  1.0000
  Li  Li12      1.0  0.08333  0.91667  0.66667  1.0000
  Co  Co10      1.0  0.00000  0.75000  0.50000  1.0000
  Co  Co11      1.0  0.16667  0.83333  0.83333  1.0000
  Co  Co12      1.0  0.08333  0.91667  0.16667  1.0000
  O   O19       1.0  0.00000  0.75000  0.76049  1.0000
  O   O20       1.0  0.00000  0.75000  0.23951  1.0000
  O   O21       1.0  0.16667  0.83333  0.09382  1.0000
  O   O22       1.0  0.16667  0.83333  0.57284  1.0000
  O   O23       1.0  0.08333  0.91667  0.42716  1.0000
  O   O24       1.0  0.08333  0.91667  0.90618  1.0000
  Li  Li13      1.0  0.25000  0.00000  0.00000  1.0000
  Li  Li14      1.0  0.41667  0.08333  0.33333  1.0000
  Li  Li15      1.0  0.33333  0.16667  0.66667  1.0000
  Co  Co13      1.0  0.25000  0.00000  0.50000  1.0000
  Co  Co14      1.0  0.41667  0.08333  0.83333  1.0000
  Co  Co15      1.0  0.33333  0.16667  0.16667  1.0000
  O   O25       1.0  0.25000  0.00000  0.76049  1.0000
  O   O26       1.0  0.25000  0.00000  0.23951  1.0000
  O   O27       1.0  0.41667  0.08333  0.09382  1.0000
  O   O28       1.0  0.41667  0.08333  0.57284  1.0000
  O   O29       1.0  0.33333  0.16667  0.42716  1.0000
  O   O30       1.0  0.33333  0.16667  0.90618  1.0000
  Li  Li16      1.0  0.25000  0.25000  0.00000  1.0000
  Li  Li17      1.0  0.41667  0.33333  0.33333  1.0000
  Li  Li18      1.0  0.33333  0.41667  0.66667  1.0000
  Co  Co16      1.0  0.25000  0.25000  0.50000  1.0000
  Co  Co17      1.0  0.41667  0.33333  0.83333  1.0000
  Co  Co18      1.0  0.33333  0.41667  0.16667  1.0000
  O   O31       1.0  0.25000  0.25000  0.76049  1.0000
  O   O32       1.0  0.25000  0.25000  0.23951  1.0000
  O   O33       1.0  0.41667  0.33333  0.09382  1.0000
  O   O34       1.0  0.41667  0.33333  0.57284  1.0000
  O   O35       1.0  0.33333  0.41667  0.42716  1.0000
  O   O36       1.0  0.33333  0.41667  0.90618  1.0000
  Li  Li19      1.0  0.25000  0.50000  0.00000  1.0000
  Li  Li20      1.0  0.41667  0.58333  0.33333  1.0000
  Li  Li21      1.0  0.33333  0.66667  0.66667  1.0000
  Co  Co19      1.0  0.25000  0.50000  0.50000  1.0000
  Co  Co20      1.0  0.41667  0.58333  0.83333  1.0000
  Co  Co21      1.0  0.33333  0.66667  0.16667  1.0000
  O   O37       1.0  0.25000  0.50000  0.76049  1.0000
  O   O38       1.0  0.25000  0.50000  0.23951  1.0000
  O   O39       1.0  0.41667  0.58333  0.09382  1.0000
  O   O40       1.0  0.41667  0.58333  0.57284  1.0000
  O   O41       1.0  0.33333  0.66667  0.42716  1.0000
  O   O42       1.0  0.33333  0.66667  0.90618  1.0000
  Li  Li22      1.0  0.41667  0.83333  0.33333  1.0000
  Li  Li23      1.0  0.33333  0.91667  0.66667  1.0000
  Co  Co22      1.0  0.25000  0.75000  0.50000  1.0000
  Co  Co23      1.0  0.41667  0.83333  0.83333  1.0000
  Co  Co24      1.0  0.33333  0.91667  0.16667  1.0000
  O   O43       1.0  0.25000  0.75000  0.76049  1.0000
  O   O44       1.0  0.25000  0.75000  0.23951  1.0000
  O   O45       1.0  0.41667  0.83333  0.09382  1.0000
  O   O46       1.0  0.41667  0.83333  0.57284  1.0000
  O   O47       1.0  0.33333  0.91667  0.42716  1.0000
  O   O48       1.0  0.33333  0.91667  0.90618  1.0000
  Li  Li24      1.0  0.50000  0.00000  0.00000  1.0000
  Li  Li25      1.0  0.66667  0.08333  0.33333  1.0000
  Li  Li26      1.0  0.58333  0.16667  0.66667  1.0000
  Co  Co25      1.0  0.50000  0.00000  0.50000  1.0000
  Co  Co26      1.0  0.66667  0.08333  0.83333  1.0000
  Co  Co27      1.0  0.58333  0.16667  0.16667  1.0000
  O   O49       1.0  0.50000  0.00000  0.76049  1.0000
  O   O50       1.0  0.50000  0.00000  0.23951  1.0000
  O   O51       1.0  0.66667  0.08333  0.09382  1.0000
  O   O52       1.0  0.66667  0.08333  0.57284  1.0000
  O   O53       1.0  0.58333  0.16667  0.42716  1.0000
  O   O54       1.0  0.58333  0.16667  0.90618  1.0000
  Li  Li27      1.0  0.50000  0.25000  0.00000  1.0000
  Li  Li28      1.0  0.66667  0.33333  0.33333  1.0000
  Li  Li29      1.0  0.58333  0.41667  0.66667  1.0000
  Co  Co28      1.0  0.50000  0.25000  0.50000  1.0000
  Co  Co29      1.0  0.66667  0.33333  0.83333  1.0000
  Co  Co30      1.0  0.58333  0.41667  0.16667  1.0000
  O   O55       1.0  0.50000  0.25000  0.76049  1.0000
  O   O56       1.0  0.50000  0.25000  0.23951  1.0000
  O   O57       1.0  0.66667  0.33333  0.09382  1.0000
  O   O58       1.0  0.66667  0.33333  0.57284  1.0000
  O   O59       1.0  0.58333  0.41667  0.42716  1.0000
  O   O60       1.0  0.58333  0.41667  0.90618  1.0000
  Li  Li30      1.0  0.50000  0.50000  0.00000  1.0000
  Li  Li31      1.0  0.66667  0.58333  0.33333  1.0000
  Li  Li32      1.0  0.58333  0.66667  0.66667  1.0000
  Co  Co31      1.0  0.50000  0.50000  0.50000  1.0000
  Co  Co32      1.0  0.66667  0.58333  0.83333  1.0000
  Co  Co33      1.0  0.58333  0.66667  0.16667  1.0000
  O   O61       1.0  0.50000  0.50000  0.76049  1.0000
  O   O62       1.0  0.50000  0.50000  0.23951  1.0000
  O   O63       1.0  0.66667  0.58333  0.09382  1.0000
  O   O64       1.0  0.66667  0.58333  0.57284  1.0000
  O   O65       1.0  0.58333  0.66667  0.42716  1.0000
  O   O66       1.0  0.58333  0.66667  0.90618  1.0000
  Li  Li33      1.0  0.50000  0.75000  0.00000  1.0000
  Li  Li34      1.0  0.66667  0.83333  0.33333  1.0000
  Li  Li35      1.0  0.58333  0.91667  0.66667  1.0000
  Co  Co34      1.0  0.50000  0.75000  0.50000  1.0000
  Co  Co35      1.0  0.66667  0.83333  0.83333  1.0000
  Co  Co36      1.0  0.58333  0.91667  0.16667  1.0000
  O   O67       1.0  0.50000  0.75000  0.76049  1.0000
  O   O68       1.0  0.50000  0.75000  0.23951  1.0000
  O   O69       1.0  0.66667  0.83333  0.09382  1.0000
  O   O70       1.0  0.66667  0.83333  0.57284  1.0000
  O   O71       1.0  0.58333  0.91667  0.42716  1.0000
  O   O72       1.0  0.58333  0.91667  0.90618  1.0000
  Li  Li36      1.0  0.75000  0.00000  0.00000  1.0000
  Li  Li37      1.0  0.91667  0.08333  0.33333  1.0000
  Li  Li38      1.0  0.83333  0.16667  0.66667  1.0000
  Co  Co37      1.0  0.75000  0.00000  0.50000  1.0000
  Co  Co38      1.0  0.91667  0.08333  0.83333  1.0000
  Co  Co39      1.0  0.83333  0.16667  0.16667  1.0000
  O   O73       1.0  0.75000  0.00000  0.76049  1.0000
  O   O74       1.0  0.75000  0.00000  0.23951  1.0000
  O   O75       1.0  0.91667  0.08333  0.09382  1.0000
  O   O76       1.0  0.91667  0.08333  0.57284  1.0000
  O   O77       1.0  0.83333  0.16667  0.42716  1.0000
  O   O78       1.0  0.83333  0.16667  0.90618  1.0000
  Li  Li39      1.0  0.75000  0.25000  0.00000  1.0000
  Li  Li40      1.0  0.91667  0.33333  0.33333  1.0000
  Li  Li41      1.0  0.83333  0.41667  0.66667  1.0000
  Co  Co40      1.0  0.75000  0.25000  0.50000  1.0000
  Co  Co41      1.0  0.91667  0.33333  0.83333  1.0000
  Co  Co42      1.0  0.83333  0.41667  0.16667  1.0000
  O   O79       1.0  0.75000  0.25000  0.76049  1.0000
  O   O80       1.0  0.75000  0.25000  0.23951  1.0000
  O   O81       1.0  0.91667  0.33333  0.09382  1.0000
  O   O82       1.0  0.91667  0.33333  0.57284  1.0000
  O   O83       1.0  0.83333  0.41667  0.42716  1.0000
  O   O84       1.0  0.83333  0.41667  0.90618  1.0000
  Li  Li42      1.0  0.75000  0.50000  0.00000  1.0000
  Li  Li43      1.0  0.91667  0.58333  0.33333  1.0000
  Li  Li44      1.0  0.83333  0.66667  0.66667  1.0000
  Co  Co43      1.0  0.75000  0.50000  0.50000  1.0000
  Co  Co44      1.0  0.91667  0.58333  0.83333  1.0000
  Co  Co45      1.0  0.83333  0.66667  0.16667  1.0000
  O   O85       1.0  0.75000  0.50000  0.76049  1.0000
  O   O86       1.0  0.75000  0.50000  0.23951  1.0000
  O   O87       1.0  0.91667  0.58333  0.09382  1.0000
  O   O88       1.0  0.91667  0.58333  0.57284  1.0000
  O   O89       1.0  0.83333  0.66667  0.42716  1.0000
  O   O90       1.0  0.83333  0.66667  0.90618  1.0000
  Li  Li45      1.0  0.75000  0.75000  0.00000  1.0000
  Li  Li46      1.0  0.91667  0.83333  0.33333  1.0000
  Li  Li47      1.0  0.83333  0.91667  0.66667  1.0000
  Co  Co46      1.0  0.75000  0.75000  0.50000  1.0000
  Co  Co47      1.0  0.91667  0.83333  0.83333  1.0000
  Co  Co48      1.0  0.83333  0.91667  0.16667  1.0000
  O   O91       1.0  0.75000  0.75000  0.76049  1.0000
  O   O92       1.0  0.75000  0.75000  0.23951  1.0000
  O   O93       1.0  0.91667  0.83333  0.09382  1.0000
  O   O94       1.0  0.91667  0.83333  0.57284  1.0000
  O   O95       1.0  0.83333  0.91667  0.42716  1.0000
  O   O96       1.0  0.83333  0.91667  0.90618  1.0000
data_image15
_chemical_formula_structural       Li3Co3O6Li3Co3O6Li3Co3O6Li3Co3O6Li3Co3O6Li3Co3O6Li3Co3O6Li2Co3O6Li3Co3O6Li3Co3O6Li3Co3O6Li3Co3O6Li3Co3O6Li3Co3O6Li3Co3O6Li3Co3O6
_chemical_formula_sum              "Li47 Co48 O96"
_cell_length_a       11.2644
_cell_length_b       11.2644
_cell_length_c       14.0536
_cell_angle_alpha    90
_cell_angle_beta     90
_cell_angle_gamma    120

_space_group_name_H-M_alt    "P 1"
_space_group_IT_number       1

loop_
  _space_group_symop_operation_xyz
  'x, y, z'

loop_
  _atom_site_type_symbol
  _atom_site_label
  _atom_site_symmetry_multiplicity
  _atom_site_fract_x
  _atom_site_fract_y
  _atom_site_fract_z
  _atom_site_occupancy
  Li  Li1       1.0  0.18635  0.81414  0.97780  1.0000
  Li  Li2       1.0  0.16667  0.08333  0.33333  1.0000
  Li  Li3       1.0  0.08333  0.16667  0.66667  1.0000
  Co  Co1       1.0  0.00000  0.00000  0.50000  1.0000
  Co  Co2       1.0  0.16667  0.08333  0.83333  1.0000
  Co  Co3       1.0  0.08333  0.16667  0.16667  1.0000
  O   O1        1.0  0.00000  0.00000  0.76049  1.0000
  O   O2        1.0  0.00000  0.00000  0.23951  1.0000
  O   O3        1.0  0.16667  0.08333  0.09382  1.0000
  O   O4        1.0  0.16667  0.08333  0.57284  1.0000
  O   O5        1.0  0.08333  0.16667  0.42716  1.0000
  O   O6        1.0  0.08333  0.16667  0.90618  1.0000
  Li  Li4       1.0  0.00000  0.25000  0.00000  1.0000
  Li  Li5       1.0  0.16667  0.33333  0.33333  1.0000
  Li  Li6       1.0  0.08333  0.41667  0.66667  1.0000
  Co  Co4       1.0  0.00000  0.25000  0.50000  1.0000
  Co  Co5       1.0  0.16667  0.33333  0.83333  1.0000
  Co  Co6       1.0  0.08333  0.41667  0.16667  1.0000
  O   O7        1.0  0.00000  0.25000  0.76049  1.0000
  O   O8        1.0  0.00000  0.25000  0.23951  1.0000
  O   O9        1.0  0.16667  0.33333  0.09382  1.0000
  O   O10       1.0  0.16667  0.33333  0.57284  1.0000
  O   O11       1.0  0.08333  0.41667  0.42716  1.0000
  O   O12       1.0  0.08333  0.41667  0.90618  1.0000
  Li  Li7       1.0  0.00000  0.50000  0.00000  1.0000
  Li  Li8       1.0  0.16667  0.58333  0.33333  1.0000
  Li  Li9       1.0  0.08333  0.66667  0.66667  1.0000
  Co  Co7       1.0  0.00000  0.50000  0.50000  1.0000
  Co  Co8       1.0  0.16667  0.58333  0.83333  1.0000
  Co  Co9       1.0  0.08333  0.66667  0.16667  1.0000
  O   O13       1.0  0.00000  0.50000  0.76049  1.0000
  O   O14       1.0  0.00000  0.50000  0.23951  1.0000
  O   O15       1.0  0.16667  0.58333  0.09382  1.0000
  O   O16       1.0  0.16667  0.58333  0.57284  1.0000
  O   O17       1.0  0.08333  0.66667  0.42716  1.0000
  O   O18       1.0  0.08333  0.66667  0.90618  1.0000
  Li  Li10      1.0  0.00000  0.75000  0.00000  1.0000
  Li  Li11      1.0  0.16667  0.83333  0.33333  1.0000
  Li  Li12      1.0  0.08333  0.91667  0.66667  1.0000
  Co  Co10      1.0  0.00000  0.75000  0.50000  1.0000
  Co  Co11      1.0  0.16667  0.83333  0.83333  1.0000
  Co  Co12      1.0  0.08333  0.91667  0.16667  1.0000
  O   O19       1.0  0.00000  0.75000  0.76049  1.0000
  O   O20       1.0  0.00000  0.75000  0.23951  1.0000
  O   O21       1.0  0.16667  0.83333  0.09382  1.0000
  O   O22       1.0  0.16667  0.83333  0.57284  1.0000
  O   O23       1.0  0.08333  0.91667  0.42716  1.0000
  O   O24       1.0  0.08333  0.91667  0.90618  1.0000
  Li  Li13      1.0  0.25000  0.00000  0.00000  1.0000
  Li  Li14      1.0  0.41667  0.08333  0.33333  1.0000
  Li  Li15      1.0  0.33333  0.16667  0.66667  1.0000
  Co  Co13      1.0  0.25000  0.00000  0.50000  1.0000
  Co  Co14      1.0  0.41667  0.08333  0.83333  1.0000
  Co  Co15      1.0  0.33333  0.16667  0.16667  1.0000
  O   O25       1.0  0.25000  0.00000  0.76049  1.0000
  O   O26       1.0  0.25000  0.00000  0.23951  1.0000
  O   O27       1.0  0.41667  0.08333  0.09382  1.0000
  O   O28       1.0  0.41667  0.08333  0.57284  1.0000
  O   O29       1.0  0.33333  0.16667  0.42716  1.0000
  O   O30       1.0  0.33333  0.16667  0.90618  1.0000
  Li  Li16      1.0  0.25000  0.25000  0.00000  1.0000
  Li  Li17      1.0  0.41667  0.33333  0.33333  1.0000
  Li  Li18      1.0  0.33333  0.41667  0.66667  1.0000
  Co  Co16      1.0  0.25000  0.25000  0.50000  1.0000
  Co  Co17      1.0  0.41667  0.33333  0.83333  1.0000
  Co  Co18      1.0  0.33333  0.41667  0.16667  1.0000
  O   O31       1.0  0.25000  0.25000  0.76049  1.0000
  O   O32       1.0  0.25000  0.25000  0.23951  1.0000
  O   O33       1.0  0.41667  0.33333  0.09382  1.0000
  O   O34       1.0  0.41667  0.33333  0.57284  1.0000
  O   O35       1.0  0.33333  0.41667  0.42716  1.0000
  O   O36       1.0  0.33333  0.41667  0.90618  1.0000
  Li  Li19      1.0  0.25000  0.50000  0.00000  1.0000
  Li  Li20      1.0  0.41667  0.58333  0.33333  1.0000
  Li  Li21      1.0  0.33333  0.66667  0.66667  1.0000
  Co  Co19      1.0  0.25000  0.50000  0.50000  1.0000
  Co  Co20      1.0  0.41667  0.58333  0.83333  1.0000
  Co  Co21      1.0  0.33333  0.66667  0.16667  1.0000
  O   O37       1.0  0.25000  0.50000  0.76049  1.0000
  O   O38       1.0  0.25000  0.50000  0.23951  1.0000
  O   O39       1.0  0.41667  0.58333  0.09382  1.0000
  O   O40       1.0  0.41667  0.58333  0.57284  1.0000
  O   O41       1.0  0.33333  0.66667  0.42716  1.0000
  O   O42       1.0  0.33333  0.66667  0.90618  1.0000
  Li  Li22      1.0  0.41667  0.83333  0.33333  1.0000
  Li  Li23      1.0  0.33333  0.91667  0.66667  1.0000
  Co  Co22      1.0  0.25000  0.75000  0.50000  1.0000
  Co  Co23      1.0  0.41667  0.83333  0.83333  1.0000
  Co  Co24      1.0  0.33333  0.91667  0.16667  1.0000
  O   O43       1.0  0.25000  0.75000  0.76049  1.0000
  O   O44       1.0  0.25000  0.75000  0.23951  1.0000
  O   O45       1.0  0.41667  0.83333  0.09382  1.0000
  O   O46       1.0  0.41667  0.83333  0.57284  1.0000
  O   O47       1.0  0.33333  0.91667  0.42716  1.0000
  O   O48       1.0  0.33333  0.91667  0.90618  1.0000
  Li  Li24      1.0  0.50000  0.00000  0.00000  1.0000
  Li  Li25      1.0  0.66667  0.08333  0.33333  1.0000
  Li  Li26      1.0  0.58333  0.16667  0.66667  1.0000
  Co  Co25      1.0  0.50000  0.00000  0.50000  1.0000
  Co  Co26      1.0  0.66667  0.08333  0.83333  1.0000
  Co  Co27      1.0  0.58333  0.16667  0.16667  1.0000
  O   O49       1.0  0.50000  0.00000  0.76049  1.0000
  O   O50       1.0  0.50000  0.00000  0.23951  1.0000
  O   O51       1.0  0.66667  0.08333  0.09382  1.0000
  O   O52       1.0  0.66667  0.08333  0.57284  1.0000
  O   O53       1.0  0.58333  0.16667  0.42716  1.0000
  O   O54       1.0  0.58333  0.16667  0.90618  1.0000
  Li  Li27      1.0  0.50000  0.25000  0.00000  1.0000
  Li  Li28      1.0  0.66667  0.33333  0.33333  1.0000
  Li  Li29      1.0  0.58333  0.41667  0.66667  1.0000
  Co  Co28      1.0  0.50000  0.25000  0.50000  1.0000
  Co  Co29      1.0  0.66667  0.33333  0.83333  1.0000
  Co  Co30      1.0  0.58333  0.41667  0.16667  1.0000
  O   O55       1.0  0.50000  0.25000  0.76049  1.0000
  O   O56       1.0  0.50000  0.25000  0.23951  1.0000
  O   O57       1.0  0.66667  0.33333  0.09382  1.0000
  O   O58       1.0  0.66667  0.33333  0.57284  1.0000
  O   O59       1.0  0.58333  0.41667  0.42716  1.0000
  O   O60       1.0  0.58333  0.41667  0.90618  1.0000
  Li  Li30      1.0  0.50000  0.50000  0.00000  1.0000
  Li  Li31      1.0  0.66667  0.58333  0.33333  1.0000
  Li  Li32      1.0  0.58333  0.66667  0.66667  1.0000
  Co  Co31      1.0  0.50000  0.50000  0.50000  1.0000
  Co  Co32      1.0  0.66667  0.58333  0.83333  1.0000
  Co  Co33      1.0  0.58333  0.66667  0.16667  1.0000
  O   O61       1.0  0.50000  0.50000  0.76049  1.0000
  O   O62       1.0  0.50000  0.50000  0.23951  1.0000
  O   O63       1.0  0.66667  0.58333  0.09382  1.0000
  O   O64       1.0  0.66667  0.58333  0.57284  1.0000
  O   O65       1.0  0.58333  0.66667  0.42716  1.0000
  O   O66       1.0  0.58333  0.66667  0.90618  1.0000
  Li  Li33      1.0  0.50000  0.75000  0.00000  1.0000
  Li  Li34      1.0  0.66667  0.83333  0.33333  1.0000
  Li  Li35      1.0  0.58333  0.91667  0.66667  1.0000
  Co  Co34      1.0  0.50000  0.75000  0.50000  1.0000
  Co  Co35      1.0  0.66667  0.83333  0.83333  1.0000
  Co  Co36      1.0  0.58333  0.91667  0.16667  1.0000
  O   O67       1.0  0.50000  0.75000  0.76049  1.0000
  O   O68       1.0  0.50000  0.75000  0.23951  1.0000
  O   O69       1.0  0.66667  0.83333  0.09382  1.0000
  O   O70       1.0  0.66667  0.83333  0.57284  1.0000
  O   O71       1.0  0.58333  0.91667  0.42716  1.0000
  O   O72       1.0  0.58333  0.91667  0.90618  1.0000
  Li  Li36      1.0  0.75000  0.00000  0.00000  1.0000
  Li  Li37      1.0  0.91667  0.08333  0.33333  1.0000
  Li  Li38      1.0  0.83333  0.16667  0.66667  1.0000
  Co  Co37      1.0  0.75000  0.00000  0.50000  1.0000
  Co  Co38      1.0  0.91667  0.08333  0.83333  1.0000
  Co  Co39      1.0  0.83333  0.16667  0.16667  1.0000
  O   O73       1.0  0.75000  0.00000  0.76049  1.0000
  O   O74       1.0  0.75000  0.00000  0.23951  1.0000
  O   O75       1.0  0.91667  0.08333  0.09382  1.0000
  O   O76       1.0  0.91667  0.08333  0.57284  1.0000
  O   O77       1.0  0.83333  0.16667  0.42716  1.0000
  O   O78       1.0  0.83333  0.16667  0.90618  1.0000
  Li  Li39      1.0  0.75000  0.25000  0.00000  1.0000
  Li  Li40      1.0  0.91667  0.33333  0.33333  1.0000
  Li  Li41      1.0  0.83333  0.41667  0.66667  1.0000
  Co  Co40      1.0  0.75000  0.25000  0.50000  1.0000
  Co  Co41      1.0  0.91667  0.33333  0.83333  1.0000
  Co  Co42      1.0  0.83333  0.41667  0.16667  1.0000
  O   O79       1.0  0.75000  0.25000  0.76049  1.0000
  O   O80       1.0  0.75000  0.25000  0.23951  1.0000
  O   O81       1.0  0.91667  0.33333  0.09382  1.0000
  O   O82       1.0  0.91667  0.33333  0.57284  1.0000
  O   O83       1.0  0.83333  0.41667  0.42716  1.0000
  O   O84       1.0  0.83333  0.41667  0.90618  1.0000
  Li  Li42      1.0  0.75000  0.50000  0.00000  1.0000
  Li  Li43      1.0  0.91667  0.58333  0.33333  1.0000
  Li  Li44      1.0  0.83333  0.66667  0.66667  1.0000
  Co  Co43      1.0  0.75000  0.50000  0.50000  1.0000
  Co  Co44      1.0  0.91667  0.58333  0.83333  1.0000
  Co  Co45      1.0  0.83333  0.66667  0.16667  1.0000
  O   O85       1.0  0.75000  0.50000  0.76049  1.0000
  O   O86       1.0  0.75000  0.50000  0.23951  1.0000
  O   O87       1.0  0.91667  0.58333  0.09382  1.0000
  O   O88       1.0  0.91667  0.58333  0.57284  1.0000
  O   O89       1.0  0.83333  0.66667  0.42716  1.0000
  O   O90       1.0  0.83333  0.66667  0.90618  1.0000
  Li  Li45      1.0  0.75000  0.75000  0.00000  1.0000
  Li  Li46      1.0  0.91667  0.83333  0.33333  1.0000
  Li  Li47      1.0  0.83333  0.91667  0.66667  1.0000
  Co  Co46      1.0  0.75000  0.75000  0.50000  1.0000
  Co  Co47      1.0  0.91667  0.83333  0.83333  1.0000
  Co  Co48      1.0  0.83333  0.91667  0.16667  1.0000
  O   O91       1.0  0.75000  0.75000  0.76049  1.0000
  O   O92       1.0  0.75000  0.75000  0.23951  1.0000
  O   O93       1.0  0.91667  0.83333  0.09382  1.0000
  O   O94       1.0  0.91667  0.83333  0.57284  1.0000
  O   O95       1.0  0.83333  0.91667  0.42716  1.0000
  O   O96       1.0  0.83333  0.91667  0.90618  1.0000
data_image16
_chemical_formula_structural       Li3Co3O6Li3Co3O6Li3Co3O6Li3Co3O6Li3Co3O6Li3Co3O6Li3Co3O6Li2Co3O6Li3Co3O6Li3Co3O6Li3Co3O6Li3Co3O6Li3Co3O6Li3Co3O6Li3Co3O6Li3Co3O6
_chemical_formula_sum              "Li47 Co48 O96"
_cell_length_a       11.2644
_cell_length_b       11.2644
_cell_length_c       14.0536
_cell_angle_alpha    90
_cell_angle_beta     90
_cell_angle_gamma    120

_space_group_name_H-M_alt    "P 1"
_space_group_IT_number       1

loop_
  _space_group_symop_operation_xyz
  'x, y, z'

loop_
  _atom_site_type_symbol
  _atom_site_label
  _atom_site_symmetry_multiplicity
  _atom_site_fract_x
  _atom_site_fract_y
  _atom_site_fract_z
  _atom_site_occupancy
  Li  Li1       1.0  0.21837  0.78241  0.98927  1.0000
  Li  Li2       1.0  0.16667  0.08333  0.33333  1.0000
  Li  Li3       1.0  0.08333  0.16667  0.66667  1.0000
  Co  Co1       1.0  0.00000  0.00000  0.50000  1.0000
  Co  Co2       1.0  0.16667  0.08333  0.83333  1.0000
  Co  Co3       1.0  0.08333  0.16667  0.16667  1.0000
  O   O1        1.0  0.00000  0.00000  0.76049  1.0000
  O   O2        1.0  0.00000  0.00000  0.23951  1.0000
  O   O3        1.0  0.16667  0.08333  0.09382  1.0000
  O   O4        1.0  0.16667  0.08333  0.57284  1.0000
  O   O5        1.0  0.08333  0.16667  0.42716  1.0000
  O   O6        1.0  0.08333  0.16667  0.90618  1.0000
  Li  Li4       1.0  0.00000  0.25000  0.00000  1.0000
  Li  Li5       1.0  0.16667  0.33333  0.33333  1.0000
  Li  Li6       1.0  0.08333  0.41667  0.66667  1.0000
  Co  Co4       1.0  0.00000  0.25000  0.50000  1.0000
  Co  Co5       1.0  0.16667  0.33333  0.83333  1.0000
  Co  Co6       1.0  0.08333  0.41667  0.16667  1.0000
  O   O7        1.0  0.00000  0.25000  0.76049  1.0000
  O   O8        1.0  0.00000  0.25000  0.23951  1.0000
  O   O9        1.0  0.16667  0.33333  0.09382  1.0000
  O   O10       1.0  0.16667  0.33333  0.57284  1.0000
  O   O11       1.0  0.08333  0.41667  0.42716  1.0000
  O   O12       1.0  0.08333  0.41667  0.90618  1.0000
  Li  Li7       1.0  0.00000  0.50000  0.00000  1.0000
  Li  Li8       1.0  0.16667  0.58333  0.33333  1.0000
  Li  Li9       1.0  0.08333  0.66667  0.66667  1.0000
  Co  Co7       1.0  0.00000  0.50000  0.50000  1.0000
  Co  Co8       1.0  0.16667  0.58333  0.83333  1.0000
  Co  Co9       1.0  0.08333  0.66667  0.16667  1.0000
  O   O13       1.0  0.00000  0.50000  0.76049  1.0000
  O   O14       1.0  0.00000  0.50000  0.23951  1.0000
  O   O15       1.0  0.16667  0.58333  0.09382  1.0000
  O   O16       1.0  0.16667  0.58333  0.57284  1.0000
  O   O17       1.0  0.08333  0.66667  0.42716  1.0000
  O   O18       1.0  0.08333  0.66667  0.90618  1.0000
  Li  Li10      1.0  0.00000  0.75000  0.00000  1.0000
  Li  Li11      1.0  0.16667  0.83333  0.33333  1.0000
  Li  Li12      1.0  0.08333  0.91667  0.66667  1.0000
  Co  Co10      1.0  0.00000  0.75000  0.50000  1.0000
  Co  Co11      1.0  0.16667  0.83333  0.83333  1.0000
  Co  Co12      1.0  0.08333  0.91667  0.16667  1.0000
  O   O19       1.0  0.00000  0.75000  0.76049  1.0000
  O   O20       1.0  0.00000  0.75000  0.23951  1.0000
  O   O21       1.0  0.16667  0.83333  0.09382  1.0000
  O   O22       1.0  0.16667  0.83333  0.57284  1.0000
  O   O23       1.0  0.08333  0.91667  0.42716  1.0000
  O   O24       1.0  0.08333  0.91667  0.90618  1.0000
  Li  Li13      1.0  0.25000  0.00000  0.00000  1.0000
  Li  Li14      1.0  0.41667  0.08333  0.33333  1.0000
  Li  Li15      1.0  0.33333  0.16667  0.66667  1.0000
  Co  Co13      1.0  0.25000  0.00000  0.50000  1.0000
  Co  Co14      1.0  0.41667  0.08333  0.83333  1.0000
  Co  Co15      1.0  0.33333  0.16667  0.16667  1.0000
  O   O25       1.0  0.25000  0.00000  0.76049  1.0000
  O   O26       1.0  0.25000  0.00000  0.23951  1.0000
  O   O27       1.0  0.41667  0.08333  0.09382  1.0000
  O   O28       1.0  0.41667  0.08333  0.57284  1.0000
  O   O29       1.0  0.33333  0.16667  0.42716  1.0000
  O   O30       1.0  0.33333  0.16667  0.90618  1.0000
  Li  Li16      1.0  0.25000  0.25000  0.00000  1.0000
  Li  Li17      1.0  0.41667  0.33333  0.33333  1.0000
  Li  Li18      1.0  0.33333  0.41667  0.66667  1.0000
  Co  Co16      1.0  0.25000  0.25000  0.50000  1.0000
  Co  Co17      1.0  0.41667  0.33333  0.83333  1.0000
  Co  Co18      1.0  0.33333  0.41667  0.16667  1.0000
  O   O31       1.0  0.25000  0.25000  0.76049  1.0000
  O   O32       1.0  0.25000  0.25000  0.23951  1.0000
  O   O33       1.0  0.41667  0.33333  0.09382  1.0000
  O   O34       1.0  0.41667  0.33333  0.57284  1.0000
  O   O35       1.0  0.33333  0.41667  0.42716  1.0000
  O   O36       1.0  0.33333  0.41667  0.90618  1.0000
  Li  Li19      1.0  0.25000  0.50000  0.00000  1.0000
  Li  Li20      1.0  0.41667  0.58333  0.33333  1.0000
  Li  Li21      1.0  0.33333  0.66667  0.66667  1.0000
  Co  Co19      1.0  0.25000  0.50000  0.50000  1.0000
  Co  Co20      1.0  0.41667  0.58333  0.83333  1.0000
  Co  Co21      1.0  0.33333  0.66667  0.16667  1.0000
  O   O37       1.0  0.25000  0.50000  0.76049  1.0000
  O   O38       1.0  0.25000  0.50000  0.23951  1.0000
  O   O39       1.0  0.41667  0.58333  0.09382  1.0000
  O   O40       1.0  0.41667  0.58333  0.57284  1.0000
  O   O41       1.0  0.33333  0.66667  0.42716  1.0000
  O   O42       1.0  0.33333  0.66667  0.90618  1.0000
  Li  Li22      1.0  0.41667  0.83333  0.33333  1.0000
  Li  Li23      1.0  0.33333  0.91667  0.66667  1.0000
  Co  Co22      1.0  0.25000  0.75000  0.50000  1.0000
  Co  Co23      1.0  0.41667  0.83333  0.83333  1.0000
  Co  Co24      1.0  0.33333  0.91667  0.16667  1.0000
  O   O43       1.0  0.25000  0.75000  0.76049  1.0000
  O   O44       1.0  0.25000  0.75000  0.23951  1.0000
  O   O45       1.0  0.41667  0.83333  0.09382  1.0000
  O   O46       1.0  0.41667  0.83333  0.57284  1.0000
  O   O47       1.0  0.33333  0.91667  0.42716  1.0000
  O   O48       1.0  0.33333  0.91667  0.90618  1.0000
  Li  Li24      1.0  0.50000  0.00000  0.00000  1.0000
  Li  Li25      1.0  0.66667  0.08333  0.33333  1.0000
  Li  Li26      1.0  0.58333  0.16667  0.66667  1.0000
  Co  Co25      1.0  0.50000  0.00000  0.50000  1.0000
  Co  Co26      1.0  0.66667  0.08333  0.83333  1.0000
  Co  Co27      1.0  0.58333  0.16667  0.16667  1.0000
  O   O49       1.0  0.50000  0.00000  0.76049  1.0000
  O   O50       1.0  0.50000  0.00000  0.23951  1.0000
  O   O51       1.0  0.66667  0.08333  0.09382  1.0000
  O   O52       1.0  0.66667  0.08333  0.57284  1.0000
  O   O53       1.0  0.58333  0.16667  0.42716  1.0000
  O   O54       1.0  0.58333  0.16667  0.90618  1.0000
  Li  Li27      1.0  0.50000  0.25000  0.00000  1.0000
  Li  Li28      1.0  0.66667  0.33333  0.33333  1.0000
  Li  Li29      1.0  0.58333  0.41667  0.66667  1.0000
  Co  Co28      1.0  0.50000  0.25000  0.50000  1.0000
  Co  Co29      1.0  0.66667  0.33333  0.83333  1.0000
  Co  Co30      1.0  0.58333  0.41667  0.16667  1.0000
  O   O55       1.0  0.50000  0.25000  0.76049  1.0000
  O   O56       1.0  0.50000  0.25000  0.23951  1.0000
  O   O57       1.0  0.66667  0.33333  0.09382  1.0000
  O   O58       1.0  0.66667  0.33333  0.57284  1.0000
  O   O59       1.0  0.58333  0.41667  0.42716  1.0000
  O   O60       1.0  0.58333  0.41667  0.90618  1.0000
  Li  Li30      1.0  0.50000  0.50000  0.00000  1.0000
  Li  Li31      1.0  0.66667  0.58333  0.33333  1.0000
  Li  Li32      1.0  0.58333  0.66667  0.66667  1.0000
  Co  Co31      1.0  0.50000  0.50000  0.50000  1.0000
  Co  Co32      1.0  0.66667  0.58333  0.83333  1.0000
  Co  Co33      1.0  0.58333  0.66667  0.16667  1.0000
  O   O61       1.0  0.50000  0.50000  0.76049  1.0000
  O   O62       1.0  0.50000  0.50000  0.23951  1.0000
  O   O63       1.0  0.66667  0.58333  0.09382  1.0000
  O   O64       1.0  0.66667  0.58333  0.57284  1.0000
  O   O65       1.0  0.58333  0.66667  0.42716  1.0000
  O   O66       1.0  0.58333  0.66667  0.90618  1.0000
  Li  Li33      1.0  0.50000  0.75000  0.00000  1.0000
  Li  Li34      1.0  0.66667  0.83333  0.33333  1.0000
  Li  Li35      1.0  0.58333  0.91667  0.66667  1.0000
  Co  Co34      1.0  0.50000  0.75000  0.50000  1.0000
  Co  Co35      1.0  0.66667  0.83333  0.83333  1.0000
  Co  Co36      1.0  0.58333  0.91667  0.16667  1.0000
  O   O67       1.0  0.50000  0.75000  0.76049  1.0000
  O   O68       1.0  0.50000  0.75000  0.23951  1.0000
  O   O69       1.0  0.66667  0.83333  0.09382  1.0000
  O   O70       1.0  0.66667  0.83333  0.57284  1.0000
  O   O71       1.0  0.58333  0.91667  0.42716  1.0000
  O   O72       1.0  0.58333  0.91667  0.90618  1.0000
  Li  Li36      1.0  0.75000  0.00000  0.00000  1.0000
  Li  Li37      1.0  0.91667  0.08333  0.33333  1.0000
  Li  Li38      1.0  0.83333  0.16667  0.66667  1.0000
  Co  Co37      1.0  0.75000  0.00000  0.50000  1.0000
  Co  Co38      1.0  0.91667  0.08333  0.83333  1.0000
  Co  Co39      1.0  0.83333  0.16667  0.16667  1.0000
  O   O73       1.0  0.75000  0.00000  0.76049  1.0000
  O   O74       1.0  0.75000  0.00000  0.23951  1.0000
  O   O75       1.0  0.91667  0.08333  0.09382  1.0000
  O   O76       1.0  0.91667  0.08333  0.57284  1.0000
  O   O77       1.0  0.83333  0.16667  0.42716  1.0000
  O   O78       1.0  0.83333  0.16667  0.90618  1.0000
  Li  Li39      1.0  0.75000  0.25000  0.00000  1.0000
  Li  Li40      1.0  0.91667  0.33333  0.33333  1.0000
  Li  Li41      1.0  0.83333  0.41667  0.66667  1.0000
  Co  Co40      1.0  0.75000  0.25000  0.50000  1.0000
  Co  Co41      1.0  0.91667  0.33333  0.83333  1.0000
  Co  Co42      1.0  0.83333  0.41667  0.16667  1.0000
  O   O79       1.0  0.75000  0.25000  0.76049  1.0000
  O   O80       1.0  0.75000  0.25000  0.23951  1.0000
  O   O81       1.0  0.91667  0.33333  0.09382  1.0000
  O   O82       1.0  0.91667  0.33333  0.57284  1.0000
  O   O83       1.0  0.83333  0.41667  0.42716  1.0000
  O   O84       1.0  0.83333  0.41667  0.90618  1.0000
  Li  Li42      1.0  0.75000  0.50000  0.00000  1.0000
  Li  Li43      1.0  0.91667  0.58333  0.33333  1.0000
  Li  Li44      1.0  0.83333  0.66667  0.66667  1.0000
  Co  Co43      1.0  0.75000  0.50000  0.50000  1.0000
  Co  Co44      1.0  0.91667  0.58333  0.83333  1.0000
  Co  Co45      1.0  0.83333  0.66667  0.16667  1.0000
  O   O85       1.0  0.75000  0.50000  0.76049  1.0000
  O   O86       1.0  0.75000  0.50000  0.23951  1.0000
  O   O87       1.0  0.91667  0.58333  0.09382  1.0000
  O   O88       1.0  0.91667  0.58333  0.57284  1.0000
  O   O89       1.0  0.83333  0.66667  0.42716  1.0000
  O   O90       1.0  0.83333  0.66667  0.90618  1.0000
  Li  Li45      1.0  0.75000  0.75000  0.00000  1.0000
  Li  Li46      1.0  0.91667  0.83333  0.33333  1.0000
  Li  Li47      1.0  0.83333  0.91667  0.66667  1.0000
  Co  Co46      1.0  0.75000  0.75000  0.50000  1.0000
  Co  Co47      1.0  0.91667  0.83333  0.83333  1.0000
  Co  Co48      1.0  0.83333  0.91667  0.16667  1.0000
  O   O91       1.0  0.75000  0.75000  0.76049  1.0000
  O   O92       1.0  0.75000  0.75000  0.23951  1.0000
  O   O93       1.0  0.91667  0.83333  0.09382  1.0000
  O   O94       1.0  0.91667  0.83333  0.57284  1.0000
  O   O95       1.0  0.83333  0.91667  0.42716  1.0000
  O   O96       1.0  0.83333  0.91667  0.90618  1.0000
data_image17
_chemical_formula_structural       Li3Co3O6Li3Co3O6Li3Co3O6Li3Co3O6Li3Co3O6Li3Co3O6Li3Co3O6Li2Co3O6Li3Co3O6Li3Co3O6Li3Co3O6Li3Co3O6Li3Co3O6Li3Co3O6Li3Co3O6Li3Co3O6
_chemical_formula_sum              "Li47 Co48 O96"
_cell_length_a       11.2644
_cell_length_b       11.2644
_cell_length_c       14.0536
_cell_angle_alpha    90
_cell_angle_beta     90
_cell_angle_gamma    120

_space_group_name_H-M_alt    "P 1"
_space_group_IT_number       1

loop_
  _space_group_symop_operation_xyz
  'x, y, z'

loop_
  _atom_site_type_symbol
  _atom_site_label
  _atom_site_symmetry_multiplicity
  _atom_site_fract_x
  _atom_site_fract_y
  _atom_site_fract_z
  _atom_site_occupancy
  Li  Li1       1.0  0.25000  0.75000  0.00000  1.0000
  Li  Li2       1.0  0.16667  0.08333  0.33333  1.0000
  Li  Li3       1.0  0.08333  0.16667  0.66667  1.0000
  Co  Co1       1.0  0.00000  0.00000  0.50000  1.0000
  Co  Co2       1.0  0.16667  0.08333  0.83333  1.0000
  Co  Co3       1.0  0.08333  0.16667  0.16667  1.0000
  O   O1        1.0  0.00000  0.00000  0.76049  1.0000
  O   O2        1.0  0.00000  0.00000  0.23951  1.0000
  O   O3        1.0  0.16667  0.08333  0.09382  1.0000
  O   O4        1.0  0.16667  0.08333  0.57284  1.0000
  O   O5        1.0  0.08333  0.16667  0.42716  1.0000
  O   O6        1.0  0.08333  0.16667  0.90618  1.0000
  Li  Li4       1.0  0.00000  0.25000  0.00000  1.0000
  Li  Li5       1.0  0.16667  0.33333  0.33333  1.0000
  Li  Li6       1.0  0.08333  0.41667  0.66667  1.0000
  Co  Co4       1.0  0.00000  0.25000  0.50000  1.0000
  Co  Co5       1.0  0.16667  0.33333  0.83333  1.0000
  Co  Co6       1.0  0.08333  0.41667  0.16667  1.0000
  O   O7        1.0  0.00000  0.25000  0.76049  1.0000
  O   O8        1.0  0.00000  0.25000  0.23951  1.0000
  O   O9        1.0  0.16667  0.33333  0.09382  1.0000
  O   O10       1.0  0.16667  0.33333  0.57284  1.0000
  O   O11       1.0  0.08333  0.41667  0.42716  1.0000
  O   O12       1.0  0.08333  0.41667  0.90618  1.0000
  Li  Li7       1.0  0.00000  0.50000  0.00000  1.0000
  Li  Li8       1.0  0.16667  0.58333  0.33333  1.0000
  Li  Li9       1.0  0.08333  0.66667  0.66667  1.0000
  Co  Co7       1.0  0.00000  0.50000  0.50000  1.0000
  Co  Co8       1.0  0.16667  0.58333  0.83333  1.0000
  Co  Co9       1.0  0.08333  0.66667  0.16667  1.0000
  O   O13       1.0  0.00000  0.50000  0.76049  1.0000
  O   O14       1.0  0.00000  0.50000  0.23951  1.0000
  O   O15       1.0  0.16667  0.58333  0.09382  1.0000
  O   O16       1.0  0.16667  0.58333  0.57284  1.0000
  O   O17       1.0  0.08333  0.66667  0.42716  1.0000
  O   O18       1.0  0.08333  0.66667  0.90618  1.0000
  Li  Li10      1.0  0.00000  0.75000  0.00000  1.0000
  Li  Li11      1.0  0.16667  0.83333  0.33333  1.0000
  Li  Li12      1.0  0.08333  0.91667  0.66667  1.0000
  Co  Co10      1.0  0.00000  0.75000  0.50000  1.0000
  Co  Co11      1.0  0.16667  0.83333  0.83333  1.0000
  Co  Co12      1.0  0.08333  0.91667  0.16667  1.0000
  O   O19       1.0  0.00000  0.75000  0.76049  1.0000
  O   O20       1.0  0.00000  0.75000  0.23951  1.0000
  O   O21       1.0  0.16667  0.83333  0.09382  1.0000
  O   O22       1.0  0.16667  0.83333  0.57284  1.0000
  O   O23       1.0  0.08333  0.91667  0.42716  1.0000
  O   O24       1.0  0.08333  0.91667  0.90618  1.0000
  Li  Li13      1.0  0.25000  0.00000  0.00000  1.0000
  Li  Li14      1.0  0.41667  0.08333  0.33333  1.0000
  Li  Li15      1.0  0.33333  0.16667  0.66667  1.0000
  Co  Co13      1.0  0.25000  0.00000  0.50000  1.0000
  Co  Co14      1.0  0.41667  0.08333  0.83333  1.0000
  Co  Co15      1.0  0.33333  0.16667  0.16667  1.0000
  O   O25       1.0  0.25000  0.00000  0.76049  1.0000
  O   O26       1.0  0.25000  0.00000  0.23951  1.0000
  O   O27       1.0  0.41667  0.08333  0.09382  1.0000
  O   O28       1.0  0.41667  0.08333  0.57284  1.0000
  O   O29       1.0  0.33333  0.16667  0.42716  1.0000
  O   O30       1.0  0.33333  0.16667  0.90618  1.0000
  Li  Li16      1.0  0.25000  0.25000  0.00000  1.0000
  Li  Li17      1.0  0.41667  0.33333  0.33333  1.0000
  Li  Li18      1.0  0.33333  0.41667  0.66667  1.0000
  Co  Co16      1.0  0.25000  0.25000  0.50000  1.0000
  Co  Co17      1.0  0.41667  0.33333  0.83333  1.0000
  Co  Co18      1.0  0.33333  0.41667  0.16667  1.0000
  O   O31       1.0  0.25000  0.25000  0.76049  1.0000
  O   O32       1.0  0.25000  0.25000  0.23951  1.0000
  O   O33       1.0  0.41667  0.33333  0.09382  1.0000
  O   O34       1.0  0.41667  0.33333  0.57284  1.0000
  O   O35       1.0  0.33333  0.41667  0.42716  1.0000
  O   O36       1.0  0.33333  0.41667  0.90618  1.0000
  Li  Li19      1.0  0.25000  0.50000  0.00000  1.0000
  Li  Li20      1.0  0.41667  0.58333  0.33333  1.0000
  Li  Li21      1.0  0.33333  0.66667  0.66667  1.0000
  Co  Co19      1.0  0.25000  0.50000  0.50000  1.0000
  Co  Co20      1.0  0.41667  0.58333  0.83333  1.0000
  Co  Co21      1.0  0.33333  0.66667  0.16667  1.0000
  O   O37       1.0  0.25000  0.50000  0.76049  1.0000
  O   O38       1.0  0.25000  0.50000  0.23951  1.0000
  O   O39       1.0  0.41667  0.58333  0.09382  1.0000
  O   O40       1.0  0.41667  0.58333  0.57284  1.0000
  O   O41       1.0  0.33333  0.66667  0.42716  1.0000
  O   O42       1.0  0.33333  0.66667  0.90618  1.0000
  Li  Li22      1.0  0.41667  0.83333  0.33333  1.0000
  Li  Li23      1.0  0.33333  0.91667  0.66667  1.0000
  Co  Co22      1.0  0.25000  0.75000  0.50000  1.0000
  Co  Co23      1.0  0.41667  0.83333  0.83333  1.0000
  Co  Co24      1.0  0.33333  0.91667  0.16667  1.0000
  O   O43       1.0  0.25000  0.75000  0.76049  1.0000
  O   O44       1.0  0.25000  0.75000  0.23951  1.0000
  O   O45       1.0  0.41667  0.83333  0.09382  1.0000
  O   O46       1.0  0.41667  0.83333  0.57284  1.0000
  O   O47       1.0  0.33333  0.91667  0.42716  1.0000
  O   O48       1.0  0.33333  0.91667  0.90618  1.0000
  Li  Li24      1.0  0.50000  0.00000  0.00000  1.0000
  Li  Li25      1.0  0.66667  0.08333  0.33333  1.0000
  Li  Li26      1.0  0.58333  0.16667  0.66667  1.0000
  Co  Co25      1.0  0.50000  0.00000  0.50000  1.0000
  Co  Co26      1.0  0.66667  0.08333  0.83333  1.0000
  Co  Co27      1.0  0.58333  0.16667  0.16667  1.0000
  O   O49       1.0  0.50000  0.00000  0.76049  1.0000
  O   O50       1.0  0.50000  0.00000  0.23951  1.0000
  O   O51       1.0  0.66667  0.08333  0.09382  1.0000
  O   O52       1.0  0.66667  0.08333  0.57284  1.0000
  O   O53       1.0  0.58333  0.16667  0.42716  1.0000
  O   O54       1.0  0.58333  0.16667  0.90618  1.0000
  Li  Li27      1.0  0.50000  0.25000  0.00000  1.0000
  Li  Li28      1.0  0.66667  0.33333  0.33333  1.0000
  Li  Li29      1.0  0.58333  0.41667  0.66667  1.0000
  Co  Co28      1.0  0.50000  0.25000  0.50000  1.0000
  Co  Co29      1.0  0.66667  0.33333  0.83333  1.0000
  Co  Co30      1.0  0.58333  0.41667  0.16667  1.0000
  O   O55       1.0  0.50000  0.25000  0.76049  1.0000
  O   O56       1.0  0.50000  0.25000  0.23951  1.0000
  O   O57       1.0  0.66667  0.33333  0.09382  1.0000
  O   O58       1.0  0.66667  0.33333  0.57284  1.0000
  O   O59       1.0  0.58333  0.41667  0.42716  1.0000
  O   O60       1.0  0.58333  0.41667  0.90618  1.0000
  Li  Li30      1.0  0.50000  0.50000  0.00000  1.0000
  Li  Li31      1.0  0.66667  0.58333  0.33333  1.0000
  Li  Li32      1.0  0.58333  0.66667  0.66667  1.0000
  Co  Co31      1.0  0.50000  0.50000  0.50000  1.0000
  Co  Co32      1.0  0.66667  0.58333  0.83333  1.0000
  Co  Co33      1.0  0.58333  0.66667  0.16667  1.0000
  O   O61       1.0  0.50000  0.50000  0.76049  1.0000
  O   O62       1.0  0.50000  0.50000  0.23951  1.0000
  O   O63       1.0  0.66667  0.58333  0.09382  1.0000
  O   O64       1.0  0.66667  0.58333  0.57284  1.0000
  O   O65       1.0  0.58333  0.66667  0.42716  1.0000
  O   O66       1.0  0.58333  0.66667  0.90618  1.0000
  Li  Li33      1.0  0.50000  0.75000  0.00000  1.0000
  Li  Li34      1.0  0.66667  0.83333  0.33333  1.0000
  Li  Li35      1.0  0.58333  0.91667  0.66667  1.0000
  Co  Co34      1.0  0.50000  0.75000  0.50000  1.0000
  Co  Co35      1.0  0.66667  0.83333  0.83333  1.0000
  Co  Co36      1.0  0.58333  0.91667  0.16667  1.0000
  O   O67       1.0  0.50000  0.75000  0.76049  1.0000
  O   O68       1.0  0.50000  0.75000  0.23951  1.0000
  O   O69       1.0  0.66667  0.83333  0.09382  1.0000
  O   O70       1.0  0.66667  0.83333  0.57284  1.0000
  O   O71       1.0  0.58333  0.91667  0.42716  1.0000
  O   O72       1.0  0.58333  0.91667  0.90618  1.0000
  Li  Li36      1.0  0.75000  0.00000  0.00000  1.0000
  Li  Li37      1.0  0.91667  0.08333  0.33333  1.0000
  Li  Li38      1.0  0.83333  0.16667  0.66667  1.0000
  Co  Co37      1.0  0.75000  0.00000  0.50000  1.0000
  Co  Co38      1.0  0.91667  0.08333  0.83333  1.0000
  Co  Co39      1.0  0.83333  0.16667  0.16667  1.0000
  O   O73       1.0  0.75000  0.00000  0.76049  1.0000
  O   O74       1.0  0.75000  0.00000  0.23951  1.0000
  O   O75       1.0  0.91667  0.08333  0.09382  1.0000
  O   O76       1.0  0.91667  0.08333  0.57284  1.0000
  O   O77       1.0  0.83333  0.16667  0.42716  1.0000
  O   O78       1.0  0.83333  0.16667  0.90618  1.0000
  Li  Li39      1.0  0.75000  0.25000  0.00000  1.0000
  Li  Li40      1.0  0.91667  0.33333  0.33333  1.0000
  Li  Li41      1.0  0.83333  0.41667  0.66667  1.0000
  Co  Co40      1.0  0.75000  0.25000  0.50000  1.0000
  Co  Co41      1.0  0.91667  0.33333  0.83333  1.0000
  Co  Co42      1.0  0.83333  0.41667  0.16667  1.0000
  O   O79       1.0  0.75000  0.25000  0.76049  1.0000
  O   O80       1.0  0.75000  0.25000  0.23951  1.0000
  O   O81       1.0  0.91667  0.33333  0.09382  1.0000
  O   O82       1.0  0.91667  0.33333  0.57284  1.0000
  O   O83       1.0  0.83333  0.41667  0.42716  1.0000
  O   O84       1.0  0.83333  0.41667  0.90618  1.0000
  Li  Li42      1.0  0.75000  0.50000  0.00000  1.0000
  Li  Li43      1.0  0.91667  0.58333  0.33333  1.0000
  Li  Li44      1.0  0.83333  0.66667  0.66667  1.0000
  Co  Co43      1.0  0.75000  0.50000  0.50000  1.0000
  Co  Co44      1.0  0.91667  0.58333  0.83333  1.0000
  Co  Co45      1.0  0.83333  0.66667  0.16667  1.0000
  O   O85       1.0  0.75000  0.50000  0.76049  1.0000
  O   O86       1.0  0.75000  0.50000  0.23951  1.0000
  O   O87       1.0  0.91667  0.58333  0.09382  1.0000
  O   O88       1.0  0.91667  0.58333  0.57284  1.0000
  O   O89       1.0  0.83333  0.66667  0.42716  1.0000
  O   O90       1.0  0.83333  0.66667  0.90618  1.0000
  Li  Li45      1.0  0.75000  0.75000  0.00000  1.0000
  Li  Li46      1.0  0.91667  0.83333  0.33333  1.0000
  Li  Li47      1.0  0.83333  0.91667  0.66667  1.0000
  Co  Co46      1.0  0.75000  0.75000  0.50000  1.0000
  Co  Co47      1.0  0.91667  0.83333  0.83333  1.0000
  Co  Co48      1.0  0.83333  0.91667  0.16667  1.0000
  O   O91       1.0  0.75000  0.75000  0.76049  1.0000
  O   O92       1.0  0.75000  0.75000  0.23951  1.0000
  O   O93       1.0  0.91667  0.83333  0.09382  1.0000
  O   O94       1.0  0.91667  0.83333  0.57284  1.0000
  O   O95       1.0  0.83333  0.91667  0.42716  1.0000
  O   O96       1.0  0.83333  0.91667  0.90618  1.0000
data_image18
_chemical_formula_structural       Li3Co3O6Li2Co3O6Li3Co3O6Li3Co3O6Li3Co3O6Li3Co3O6Li3Co3O6Li3Co3O6Li3Co3O6Li3Co3O6Li3Co3O6Li3Co3O6Li3Co3O6Li3Co3O6Li3Co3O6Li3Co3O6
_chemical_formula_sum              "Li47 Co48 O96"
_cell_length_a       11.2644
_cell_length_b       11.2644
_cell_length_c       14.0536
_cell_angle_alpha    90
_cell_angle_beta     90
_cell_angle_gamma    120

_space_group_name_H-M_alt    "P 1"
_space_group_IT_number       1

loop_
  _space_group_symop_operation_xyz
  'x, y, z'

loop_
  _atom_site_type_symbol
  _atom_site_label
  _atom_site_symmetry_multiplicity
  _atom_site_fract_x
  _atom_site_fract_y
  _atom_site_fract_z
  _atom_site_occupancy
  Li  Li1       1.0  0.00000  0.00000  0.00000  1.0000
  Li  Li2       1.0  0.16667  0.08333  0.33333  1.0000
  Li  Li3       1.0  0.08333  0.16667  0.66667  1.0000
  Co  Co1       1.0  0.00000  0.00000  0.50000  1.0000
  Co  Co2       1.0  0.16667  0.08333  0.83333  1.0000
  Co  Co3       1.0  0.08333  0.16667  0.16667  1.0000
  O   O1        1.0  0.00000  0.00000  0.76049  1.0000
  O   O2        1.0  0.00000  0.00000  0.23951  1.0000
  O   O3        1.0  0.16667  0.08333  0.09382  1.0000
  O   O4        1.0  0.16667  0.08333  0.57284  1.0000
  O   O5        1.0  0.08333  0.16667  0.42716  1.0000
  O   O6        1.0  0.08333  0.16667  0.90618  1.0000
  Li  Li4       1.0  0.16667  0.33333  0.33333  1.0000
  Li  Li5       1.0  0.08333  0.41667  0.66667  1.0000
  Co  Co4       1.0  0.00000  0.25000  0.50000  1.0000
  Co  Co5       1.0  0.16667  0.33333  0.83333  1.0000
  Co  Co6       1.0  0.08333  0.41667  0.16667  1.0000
  O   O7        1.0  0.00000  0.25000  0.76049  1.0000
  O   O8        1.0  0.00000  0.25000  0.23951  1.0000
  O   O9        1.0  0.16667  0.33333  0.09382  1.0000
  O   O10       1.0  0.16667  0.33333  0.57284  1.0000
  O   O11       1.0  0.08333  0.41667  0.42716  1.0000
  O   O12       1.0  0.08333  0.41667  0.90618  1.0000
  Li  Li6       1.0  0.00000  0.50000  0.00000  1.0000
  Li  Li7       1.0  0.16667  0.58333  0.33333  1.0000
  Li  Li8       1.0  0.08333  0.66667  0.66667  1.0000
  Co  Co7       1.0  0.00000  0.50000  0.50000  1.0000
  Co  Co8       1.0  0.16667  0.58333  0.83333  1.0000
  Co  Co9       1.0  0.08333  0.66667  0.16667  1.0000
  O   O13       1.0  0.00000  0.50000  0.76049  1.0000
  O   O14       1.0  0.00000  0.50000  0.23951  1.0000
  O   O15       1.0  0.16667  0.58333  0.09382  1.0000
  O   O16       1.0  0.16667  0.58333  0.57284  1.0000
  O   O17       1.0  0.08333  0.66667  0.42716  1.0000
  O   O18       1.0  0.08333  0.66667  0.90618  1.0000
  Li  Li9       1.0  0.00000  0.75000  0.00000  1.0000
  Li  Li10      1.0  0.16667  0.83333  0.33333  1.0000
  Li  Li11      1.0  0.08333  0.91667  0.66667  1.0000
  Co  Co10      1.0  0.00000  0.75000  0.50000  1.0000
  Co  Co11      1.0  0.16667  0.83333  0.83333  1.0000
  Co  Co12      1.0  0.08333  0.91667  0.16667  1.0000
  O   O19       1.0  0.00000  0.75000  0.76049  1.0000
  O   O20       1.0  0.00000  0.75000  0.23951  1.0000
  O   O21       1.0  0.16667  0.83333  0.09382  1.0000
  O   O22       1.0  0.16667  0.83333  0.57284  1.0000
  O   O23       1.0  0.08333  0.91667  0.42716  1.0000
  O   O24       1.0  0.08333  0.91667  0.90618  1.0000
  Li  Li12      1.0  0.25000  0.00000  0.00000  1.0000
  Li  Li13      1.0  0.41667  0.08333  0.33333  1.0000
  Li  Li14      1.0  0.33333  0.16667  0.66667  1.0000
  Co  Co13      1.0  0.25000  0.00000  0.50000  1.0000
  Co  Co14      1.0  0.41667  0.08333  0.83333  1.0000
  Co  Co15      1.0  0.33333  0.16667  0.16667  1.0000
  O   O25       1.0  0.25000  0.00000  0.76049  1.0000
  O   O26       1.0  0.25000  0.00000  0.23951  1.0000
  O   O27       1.0  0.41667  0.08333  0.09382  1.0000
  O   O28       1.0  0.41667  0.08333  0.57284  1.0000
  O   O29       1.0  0.33333  0.16667  0.42716  1.0000
  O   O30       1.0  0.33333  0.16667  0.90618  1.0000
  Li  Li15      1.0  0.25000  0.25000  0.00000  1.0000
  Li  Li16      1.0  0.41667  0.33333  0.33333  1.0000
  Li  Li17      1.0  0.33333  0.41667  0.66667  1.0000
  Co  Co16      1.0  0.25000  0.25000  0.50000  1.0000
  Co  Co17      1.0  0.41667  0.33333  0.83333  1.0000
  Co  Co18      1.0  0.33333  0.41667  0.16667  1.0000
  O   O31       1.0  0.25000  0.25000  0.76049  1.0000
  O   O32       1.0  0.25000  0.25000  0.23951  1.0000
  O   O33       1.0  0.41667  0.33333  0.09382  1.0000
  O   O34       1.0  0.41667  0.33333  0.57284  1.0000
  O   O35       1.0  0.33333  0.41667  0.42716  1.0000
  O   O36       1.0  0.33333  0.41667  0.90618  1.0000
  Li  Li18      1.0  0.25000  0.50000  0.00000  1.0000
  Li  Li19      1.0  0.41667  0.58333  0.33333  1.0000
  Li  Li20      1.0  0.33333  0.66667  0.66667  1.0000
  Co  Co19      1.0  0.25000  0.50000  0.50000  1.0000
  Co  Co20      1.0  0.41667  0.58333  0.83333  1.0000
  Co  Co21      1.0  0.33333  0.66667  0.16667  1.0000
  O   O37       1.0  0.25000  0.50000  0.76049  1.0000
  O   O38       1.0  0.25000  0.50000  0.23951  1.0000
  O   O39       1.0  0.41667  0.58333  0.09382  1.0000
  O   O40       1.0  0.41667  0.58333  0.57284  1.0000
  O   O41       1.0  0.33333  0.66667  0.42716  1.0000
  O   O42       1.0  0.33333  0.66667  0.90618  1.0000
  Li  Li21      1.0  0.25000  0.75000  0.00000  1.0000
  Li  Li22      1.0  0.41667  0.83333  0.33333  1.0000
  Li  Li23      1.0  0.33333  0.91667  0.66667  1.0000
  Co  Co22      1.0  0.25000  0.75000  0.50000  1.0000
  Co  Co23      1.0  0.41667  0.83333  0.83333  1.0000
  Co  Co24      1.0  0.33333  0.91667  0.16667  1.0000
  O   O43       1.0  0.25000  0.75000  0.76049  1.0000
  O   O44       1.0  0.25000  0.75000  0.23951  1.0000
  O   O45       1.0  0.41667  0.83333  0.09382  1.0000
  O   O46       1.0  0.41667  0.83333  0.57284  1.0000
  O   O47       1.0  0.33333  0.91667  0.42716  1.0000
  O   O48       1.0  0.33333  0.91667  0.90618  1.0000
  Li  Li24      1.0  0.50000  0.00000  0.00000  1.0000
  Li  Li25      1.0  0.66667  0.08333  0.33333  1.0000
  Li  Li26      1.0  0.58333  0.16667  0.66667  1.0000
  Co  Co25      1.0  0.50000  0.00000  0.50000  1.0000
  Co  Co26      1.0  0.66667  0.08333  0.83333  1.0000
  Co  Co27      1.0  0.58333  0.16667  0.16667  1.0000
  O   O49       1.0  0.50000  0.00000  0.76049  1.0000
  O   O50       1.0  0.50000  0.00000  0.23951  1.0000
  O   O51       1.0  0.66667  0.08333  0.09382  1.0000
  O   O52       1.0  0.66667  0.08333  0.57284  1.0000
  O   O53       1.0  0.58333  0.16667  0.42716  1.0000
  O   O54       1.0  0.58333  0.16667  0.90618  1.0000
  Li  Li27      1.0  0.50000  0.25000  0.00000  1.0000
  Li  Li28      1.0  0.66667  0.33333  0.33333  1.0000
  Li  Li29      1.0  0.58333  0.41667  0.66667  1.0000
  Co  Co28      1.0  0.50000  0.25000  0.50000  1.0000
  Co  Co29      1.0  0.66667  0.33333  0.83333  1.0000
  Co  Co30      1.0  0.58333  0.41667  0.16667  1.0000
  O   O55       1.0  0.50000  0.25000  0.76049  1.0000
  O   O56       1.0  0.50000  0.25000  0.23951  1.0000
  O   O57       1.0  0.66667  0.33333  0.09382  1.0000
  O   O58       1.0  0.66667  0.33333  0.57284  1.0000
  O   O59       1.0  0.58333  0.41667  0.42716  1.0000
  O   O60       1.0  0.58333  0.41667  0.90618  1.0000
  Li  Li30      1.0  0.50000  0.50000  0.00000  1.0000
  Li  Li31      1.0  0.66667  0.58333  0.33333  1.0000
  Li  Li32      1.0  0.58333  0.66667  0.66667  1.0000
  Co  Co31      1.0  0.50000  0.50000  0.50000  1.0000
  Co  Co32      1.0  0.66667  0.58333  0.83333  1.0000
  Co  Co33      1.0  0.58333  0.66667  0.16667  1.0000
  O   O61       1.0  0.50000  0.50000  0.76049  1.0000
  O   O62       1.0  0.50000  0.50000  0.23951  1.0000
  O   O63       1.0  0.66667  0.58333  0.09382  1.0000
  O   O64       1.0  0.66667  0.58333  0.57284  1.0000
  O   O65       1.0  0.58333  0.66667  0.42716  1.0000
  O   O66       1.0  0.58333  0.66667  0.90618  1.0000
  Li  Li33      1.0  0.50000  0.75000  0.00000  1.0000
  Li  Li34      1.0  0.66667  0.83333  0.33333  1.0000
  Li  Li35      1.0  0.58333  0.91667  0.66667  1.0000
  Co  Co34      1.0  0.50000  0.75000  0.50000  1.0000
  Co  Co35      1.0  0.66667  0.83333  0.83333  1.0000
  Co  Co36      1.0  0.58333  0.91667  0.16667  1.0000
  O   O67       1.0  0.50000  0.75000  0.76049  1.0000
  O   O68       1.0  0.50000  0.75000  0.23951  1.0000
  O   O69       1.0  0.66667  0.83333  0.09382  1.0000
  O   O70       1.0  0.66667  0.83333  0.57284  1.0000
  O   O71       1.0  0.58333  0.91667  0.42716  1.0000
  O   O72       1.0  0.58333  0.91667  0.90618  1.0000
  Li  Li36      1.0  0.75000  0.00000  0.00000  1.0000
  Li  Li37      1.0  0.91667  0.08333  0.33333  1.0000
  Li  Li38      1.0  0.83333  0.16667  0.66667  1.0000
  Co  Co37      1.0  0.75000  0.00000  0.50000  1.0000
  Co  Co38      1.0  0.91667  0.08333  0.83333  1.0000
  Co  Co39      1.0  0.83333  0.16667  0.16667  1.0000
  O   O73       1.0  0.75000  0.00000  0.76049  1.0000
  O   O74       1.0  0.75000  0.00000  0.23951  1.0000
  O   O75       1.0  0.91667  0.08333  0.09382  1.0000
  O   O76       1.0  0.91667  0.08333  0.57284  1.0000
  O   O77       1.0  0.83333  0.16667  0.42716  1.0000
  O   O78       1.0  0.83333  0.16667  0.90618  1.0000
  Li  Li39      1.0  0.75000  0.25000  0.00000  1.0000
  Li  Li40      1.0  0.91667  0.33333  0.33333  1.0000
  Li  Li41      1.0  0.83333  0.41667  0.66667  1.0000
  Co  Co40      1.0  0.75000  0.25000  0.50000  1.0000
  Co  Co41      1.0  0.91667  0.33333  0.83333  1.0000
  Co  Co42      1.0  0.83333  0.41667  0.16667  1.0000
  O   O79       1.0  0.75000  0.25000  0.76049  1.0000
  O   O80       1.0  0.75000  0.25000  0.23951  1.0000
  O   O81       1.0  0.91667  0.33333  0.09382  1.0000
  O   O82       1.0  0.91667  0.33333  0.57284  1.0000
  O   O83       1.0  0.83333  0.41667  0.42716  1.0000
  O   O84       1.0  0.83333  0.41667  0.90618  1.0000
  Li  Li42      1.0  0.75000  0.50000  0.00000  1.0000
  Li  Li43      1.0  0.91667  0.58333  0.33333  1.0000
  Li  Li44      1.0  0.83333  0.66667  0.66667  1.0000
  Co  Co43      1.0  0.75000  0.50000  0.50000  1.0000
  Co  Co44      1.0  0.91667  0.58333  0.83333  1.0000
  Co  Co45      1.0  0.83333  0.66667  0.16667  1.0000
  O   O85       1.0  0.75000  0.50000  0.76049  1.0000
  O   O86       1.0  0.75000  0.50000  0.23951  1.0000
  O   O87       1.0  0.91667  0.58333  0.09382  1.0000
  O   O88       1.0  0.91667  0.58333  0.57284  1.0000
  O   O89       1.0  0.83333  0.66667  0.42716  1.0000
  O   O90       1.0  0.83333  0.66667  0.90618  1.0000
  Li  Li45      1.0  0.75000  0.75000  0.00000  1.0000
  Li  Li46      1.0  0.91667  0.83333  0.33333  1.0000
  Li  Li47      1.0  0.83333  0.91667  0.66667  1.0000
  Co  Co46      1.0  0.75000  0.75000  0.50000  1.0000
  Co  Co47      1.0  0.91667  0.83333  0.83333  1.0000
  Co  Co48      1.0  0.83333  0.91667  0.16667  1.0000
  O   O91       1.0  0.75000  0.75000  0.76049  1.0000
  O   O92       1.0  0.75000  0.75000  0.23951  1.0000
  O   O93       1.0  0.91667  0.83333  0.09382  1.0000
  O   O94       1.0  0.91667  0.83333  0.57284  1.0000
  O   O95       1.0  0.83333  0.91667  0.42716  1.0000
  O   O96       1.0  0.83333  0.91667  0.90618  1.0000
data_image19
_chemical_formula_structural       Li3Co3O6Li2Co3O6Li3Co3O6Li3Co3O6Li3Co3O6Li3Co3O6Li3Co3O6Li3Co3O6Li3Co3O6Li3Co3O6Li3Co3O6Li3Co3O6Li3Co3O6Li3Co3O6Li3Co3O6Li3Co3O6
_chemical_formula_sum              "Li47 Co48 O96"
_cell_length_a       11.2644
_cell_length_b       11.2644
_cell_length_c       14.0536
_cell_angle_alpha    90
_cell_angle_beta     90
_cell_angle_gamma    120

_space_group_name_H-M_alt    "P 1"
_space_group_IT_number       1

loop_
  _space_group_symop_operation_xyz
  'x, y, z'

loop_
  _atom_site_type_symbol
  _atom_site_label
  _atom_site_symmetry_multiplicity
  _atom_site_fract_x
  _atom_site_fract_y
  _atom_site_fract_z
  _atom_site_occupancy
  Li  Li1       1.0  0.03083  0.07745  0.01161  1.0000
  Li  Li2       1.0  0.16667  0.08333  0.33333  1.0000
  Li  Li3       1.0  0.08333  0.16667  0.66667  1.0000
  Co  Co1       1.0  0.00000  0.00000  0.50000  1.0000
  Co  Co2       1.0  0.16667  0.08333  0.83333  1.0000
  Co  Co3       1.0  0.08333  0.16667  0.16667  1.0000
  O   O1        1.0  0.00000  0.00000  0.76049  1.0000
  O   O2        1.0  0.00000  0.00000  0.23951  1.0000
  O   O3        1.0  0.16667  0.08333  0.09382  1.0000
  O   O4        1.0  0.16667  0.08333  0.57284  1.0000
  O   O5        1.0  0.08333  0.16667  0.42716  1.0000
  O   O6        1.0  0.08333  0.16667  0.90618  1.0000
  Li  Li4       1.0  0.16667  0.33333  0.33333  1.0000
  Li  Li5       1.0  0.08333  0.41667  0.66667  1.0000
  Co  Co4       1.0  0.00000  0.25000  0.50000  1.0000
  Co  Co5       1.0  0.16667  0.33333  0.83333  1.0000
  Co  Co6       1.0  0.08333  0.41667  0.16667  1.0000
  O   O7        1.0  0.00000  0.25000  0.76049  1.0000
  O   O8        1.0  0.00000  0.25000  0.23951  1.0000
  O   O9        1.0  0.16667  0.33333  0.09382  1.0000
  O   O10       1.0  0.16667  0.33333  0.57284  1.0000
  O   O11       1.0  0.08333  0.41667  0.42716  1.0000
  O   O12       1.0  0.08333  0.41667  0.90618  1.0000
  Li  Li6       1.0  0.00000  0.50000  0.00000  1.0000
  Li  Li7       1.0  0.16667  0.58333  0.33333  1.0000
  Li  Li8       1.0  0.08333  0.66667  0.66667  1.0000
  Co  Co7       1.0  0.00000  0.50000  0.50000  1.0000
  Co  Co8       1.0  0.16667  0.58333  0.83333  1.0000
  Co  Co9       1.0  0.08333  0.66667  0.16667  1.0000
  O   O13       1.0  0.00000  0.50000  0.76049  1.0000
  O   O14       1.0  0.00000  0.50000  0.23951  1.0000
  O   O15       1.0  0.16667  0.58333  0.09382  1.0000
  O   O16       1.0  0.16667  0.58333  0.57284  1.0000
  O   O17       1.0  0.08333  0.66667  0.42716  1.0000
  O   O18       1.0  0.08333  0.66667  0.90618  1.0000
  Li  Li9       1.0  0.00000  0.75000  0.00000  1.0000
  Li  Li10      1.0  0.16667  0.83333  0.33333  1.0000
  Li  Li11      1.0  0.08333  0.91667  0.66667  1.0000
  Co  Co10      1.0  0.00000  0.75000  0.50000  1.0000
  Co  Co11      1.0  0.16667  0.83333  0.83333  1.0000
  Co  Co12      1.0  0.08333  0.91667  0.16667  1.0000
  O   O19       1.0  0.00000  0.75000  0.76049  1.0000
  O   O20       1.0  0.00000  0.75000  0.23951  1.0000
  O   O21       1.0  0.16667  0.83333  0.09382  1.0000
  O   O22       1.0  0.16667  0.83333  0.57284  1.0000
  O   O23       1.0  0.08333  0.91667  0.42716  1.0000
  O   O24       1.0  0.08333  0.91667  0.90618  1.0000
  Li  Li12      1.0  0.25000  0.00000  0.00000  1.0000
  Li  Li13      1.0  0.41667  0.08333  0.33333  1.0000
  Li  Li14      1.0  0.33333  0.16667  0.66667  1.0000
  Co  Co13      1.0  0.25000  0.00000  0.50000  1.0000
  Co  Co14      1.0  0.41667  0.08333  0.83333  1.0000
  Co  Co15      1.0  0.33333  0.16667  0.16667  1.0000
  O   O25       1.0  0.25000  0.00000  0.76049  1.0000
  O   O26       1.0  0.25000  0.00000  0.23951  1.0000
  O   O27       1.0  0.41667  0.08333  0.09382  1.0000
  O   O28       1.0  0.41667  0.08333  0.57284  1.0000
  O   O29       1.0  0.33333  0.16667  0.42716  1.0000
  O   O30       1.0  0.33333  0.16667  0.90618  1.0000
  Li  Li15      1.0  0.25000  0.25000  0.00000  1.0000
  Li  Li16      1.0  0.41667  0.33333  0.33333  1.0000
  Li  Li17      1.0  0.33333  0.41667  0.66667  1.0000
  Co  Co16      1.0  0.25000  0.25000  0.50000  1.0000
  Co  Co17      1.0  0.41667  0.33333  0.83333  1.0000
  Co  Co18      1.0  0.33333  0.41667  0.16667  1.0000
  O   O31       1.0  0.25000  0.25000  0.76049  1.0000
  O   O32       1.0  0.25000  0.25000  0.23951  1.0000
  O   O33       1.0  0.41667  0.33333  0.09382  1.0000
  O   O34       1.0  0.41667  0.33333  0.57284  1.0000
  O   O35       1.0  0.33333  0.41667  0.42716  1.0000
  O   O36       1.0  0.33333  0.41667  0.90618  1.0000
  Li  Li18      1.0  0.25000  0.50000  0.00000  1.0000
  Li  Li19      1.0  0.41667  0.58333  0.33333  1.0000
  Li  Li20      1.0  0.33333  0.66667  0.66667  1.0000
  Co  Co19      1.0  0.25000  0.50000  0.50000  1.0000
  Co  Co20      1.0  0.41667  0.58333  0.83333  1.0000
  Co  Co21      1.0  0.33333  0.66667  0.16667  1.0000
  O   O37       1.0  0.25000  0.50000  0.76049  1.0000
  O   O38       1.0  0.25000  0.50000  0.23951  1.0000
  O   O39       1.0  0.41667  0.58333  0.09382  1.0000
  O   O40       1.0  0.41667  0.58333  0.57284  1.0000
  O   O41       1.0  0.33333  0.66667  0.42716  1.0000
  O   O42       1.0  0.33333  0.66667  0.90618  1.0000
  Li  Li21      1.0  0.25000  0.75000  0.00000  1.0000
  Li  Li22      1.0  0.41667  0.83333  0.33333  1.0000
  Li  Li23      1.0  0.33333  0.91667  0.66667  1.0000
  Co  Co22      1.0  0.25000  0.75000  0.50000  1.0000
  Co  Co23      1.0  0.41667  0.83333  0.83333  1.0000
  Co  Co24      1.0  0.33333  0.91667  0.16667  1.0000
  O   O43       1.0  0.25000  0.75000  0.76049  1.0000
  O   O44       1.0  0.25000  0.75000  0.23951  1.0000
  O   O45       1.0  0.41667  0.83333  0.09382  1.0000
  O   O46       1.0  0.41667  0.83333  0.57284  1.0000
  O   O47       1.0  0.33333  0.91667  0.42716  1.0000
  O   O48       1.0  0.33333  0.91667  0.90618  1.0000
  Li  Li24      1.0  0.50000  0.00000  0.00000  1.0000
  Li  Li25      1.0  0.66667  0.08333  0.33333  1.0000
  Li  Li26      1.0  0.58333  0.16667  0.66667  1.0000
  Co  Co25      1.0  0.50000  0.00000  0.50000  1.0000
  Co  Co26      1.0  0.66667  0.08333  0.83333  1.0000
  Co  Co27      1.0  0.58333  0.16667  0.16667  1.0000
  O   O49       1.0  0.50000  0.00000  0.76049  1.0000
  O   O50       1.0  0.50000  0.00000  0.23951  1.0000
  O   O51       1.0  0.66667  0.08333  0.09382  1.0000
  O   O52       1.0  0.66667  0.08333  0.57284  1.0000
  O   O53       1.0  0.58333  0.16667  0.42716  1.0000
  O   O54       1.0  0.58333  0.16667  0.90618  1.0000
  Li  Li27      1.0  0.50000  0.25000  0.00000  1.0000
  Li  Li28      1.0  0.66667  0.33333  0.33333  1.0000
  Li  Li29      1.0  0.58333  0.41667  0.66667  1.0000
  Co  Co28      1.0  0.50000  0.25000  0.50000  1.0000
  Co  Co29      1.0  0.66667  0.33333  0.83333  1.0000
  Co  Co30      1.0  0.58333  0.41667  0.16667  1.0000
  O   O55       1.0  0.50000  0.25000  0.76049  1.0000
  O   O56       1.0  0.50000  0.25000  0.23951  1.0000
  O   O57       1.0  0.66667  0.33333  0.09382  1.0000
  O   O58       1.0  0.66667  0.33333  0.57284  1.0000
  O   O59       1.0  0.58333  0.41667  0.42716  1.0000
  O   O60       1.0  0.58333  0.41667  0.90618  1.0000
  Li  Li30      1.0  0.50000  0.50000  0.00000  1.0000
  Li  Li31      1.0  0.66667  0.58333  0.33333  1.0000
  Li  Li32      1.0  0.58333  0.66667  0.66667  1.0000
  Co  Co31      1.0  0.50000  0.50000  0.50000  1.0000
  Co  Co32      1.0  0.66667  0.58333  0.83333  1.0000
  Co  Co33      1.0  0.58333  0.66667  0.16667  1.0000
  O   O61       1.0  0.50000  0.50000  0.76049  1.0000
  O   O62       1.0  0.50000  0.50000  0.23951  1.0000
  O   O63       1.0  0.66667  0.58333  0.09382  1.0000
  O   O64       1.0  0.66667  0.58333  0.57284  1.0000
  O   O65       1.0  0.58333  0.66667  0.42716  1.0000
  O   O66       1.0  0.58333  0.66667  0.90618  1.0000
  Li  Li33      1.0  0.50000  0.75000  0.00000  1.0000
  Li  Li34      1.0  0.66667  0.83333  0.33333  1.0000
  Li  Li35      1.0  0.58333  0.91667  0.66667  1.0000
  Co  Co34      1.0  0.50000  0.75000  0.50000  1.0000
  Co  Co35      1.0  0.66667  0.83333  0.83333  1.0000
  Co  Co36      1.0  0.58333  0.91667  0.16667  1.0000
  O   O67       1.0  0.50000  0.75000  0.76049  1.0000
  O   O68       1.0  0.50000  0.75000  0.23951  1.0000
  O   O69       1.0  0.66667  0.83333  0.09382  1.0000
  O   O70       1.0  0.66667  0.83333  0.57284  1.0000
  O   O71       1.0  0.58333  0.91667  0.42716  1.0000
  O   O72       1.0  0.58333  0.91667  0.90618  1.0000
  Li  Li36      1.0  0.75000  0.00000  0.00000  1.0000
  Li  Li37      1.0  0.91667  0.08333  0.33333  1.0000
  Li  Li38      1.0  0.83333  0.16667  0.66667  1.0000
  Co  Co37      1.0  0.75000  0.00000  0.50000  1.0000
  Co  Co38      1.0  0.91667  0.08333  0.83333  1.0000
  Co  Co39      1.0  0.83333  0.16667  0.16667  1.0000
  O   O73       1.0  0.75000  0.00000  0.76049  1.0000
  O   O74       1.0  0.75000  0.00000  0.23951  1.0000
  O   O75       1.0  0.91667  0.08333  0.09382  1.0000
  O   O76       1.0  0.91667  0.08333  0.57284  1.0000
  O   O77       1.0  0.83333  0.16667  0.42716  1.0000
  O   O78       1.0  0.83333  0.16667  0.90618  1.0000
  Li  Li39      1.0  0.75000  0.25000  0.00000  1.0000
  Li  Li40      1.0  0.91667  0.33333  0.33333  1.0000
  Li  Li41      1.0  0.83333  0.41667  0.66667  1.0000
  Co  Co40      1.0  0.75000  0.25000  0.50000  1.0000
  Co  Co41      1.0  0.91667  0.33333  0.83333  1.0000
  Co  Co42      1.0  0.83333  0.41667  0.16667  1.0000
  O   O79       1.0  0.75000  0.25000  0.76049  1.0000
  O   O80       1.0  0.75000  0.25000  0.23951  1.0000
  O   O81       1.0  0.91667  0.33333  0.09382  1.0000
  O   O82       1.0  0.91667  0.33333  0.57284  1.0000
  O   O83       1.0  0.83333  0.41667  0.42716  1.0000
  O   O84       1.0  0.83333  0.41667  0.90618  1.0000
  Li  Li42      1.0  0.75000  0.50000  0.00000  1.0000
  Li  Li43      1.0  0.91667  0.58333  0.33333  1.0000
  Li  Li44      1.0  0.83333  0.66667  0.66667  1.0000
  Co  Co43      1.0  0.75000  0.50000  0.50000  1.0000
  Co  Co44      1.0  0.91667  0.58333  0.83333  1.0000
  Co  Co45      1.0  0.83333  0.66667  0.16667  1.0000
  O   O85       1.0  0.75000  0.50000  0.76049  1.0000
  O   O86       1.0  0.75000  0.50000  0.23951  1.0000
  O   O87       1.0  0.91667  0.58333  0.09382  1.0000
  O   O88       1.0  0.91667  0.58333  0.57284  1.0000
  O   O89       1.0  0.83333  0.66667  0.42716  1.0000
  O   O90       1.0  0.83333  0.66667  0.90618  1.0000
  Li  Li45      1.0  0.75000  0.75000  0.00000  1.0000
  Li  Li46      1.0  0.91667  0.83333  0.33333  1.0000
  Li  Li47      1.0  0.83333  0.91667  0.66667  1.0000
  Co  Co46      1.0  0.75000  0.75000  0.50000  1.0000
  Co  Co47      1.0  0.91667  0.83333  0.83333  1.0000
  Co  Co48      1.0  0.83333  0.91667  0.16667  1.0000
  O   O91       1.0  0.75000  0.75000  0.76049  1.0000
  O   O92       1.0  0.75000  0.75000  0.23951  1.0000
  O   O93       1.0  0.91667  0.83333  0.09382  1.0000
  O   O94       1.0  0.91667  0.83333  0.57284  1.0000
  O   O95       1.0  0.83333  0.91667  0.42716  1.0000
  O   O96       1.0  0.83333  0.91667  0.90618  1.0000
data_image20
_chemical_formula_structural       Li3Co3O6Li2Co3O6Li3Co3O6Li3Co3O6Li3Co3O6Li3Co3O6Li3Co3O6Li3Co3O6Li3Co3O6Li3Co3O6Li3Co3O6Li3Co3O6Li3Co3O6Li3Co3O6Li3Co3O6Li3Co3O6
_chemical_formula_sum              "Li47 Co48 O96"
_cell_length_a       11.2644
_cell_length_b       11.2644
_cell_length_c       14.0536
_cell_angle_alpha    90
_cell_angle_beta     90
_cell_angle_gamma    120

_space_group_name_H-M_alt    "P 1"
_space_group_IT_number       1

loop_
  _space_group_symop_operation_xyz
  'x, y, z'

loop_
  _atom_site_type_symbol
  _atom_site_label
  _atom_site_symmetry_multiplicity
  _atom_site_fract_x
  _atom_site_fract_y
  _atom_site_fract_z
  _atom_site_occupancy
  Li  Li1       1.0  0.05852  0.15488  0.02300  1.0000
  Li  Li2       1.0  0.16667  0.08333  0.33333  1.0000
  Li  Li3       1.0  0.08333  0.16667  0.66667  1.0000
  Co  Co1       1.0  0.00000  0.00000  0.50000  1.0000
  Co  Co2       1.0  0.16667  0.08333  0.83333  1.0000
  Co  Co3       1.0  0.08333  0.16667  0.16667  1.0000
  O   O1        1.0  0.00000  0.00000  0.76049  1.0000
  O   O2        1.0  0.00000  0.00000  0.23951  1.0000
  O   O3        1.0  0.16667  0.08333  0.09382  1.0000
  O   O4        1.0  0.16667  0.08333  0.57284  1.0000
  O   O5        1.0  0.08333  0.16667  0.42716  1.0000
  O   O6        1.0  0.08333  0.16667  0.90618  1.0000
  Li  Li4       1.0  0.16667  0.33333  0.33333  1.0000
  Li  Li5       1.0  0.08333  0.41667  0.66667  1.0000
  Co  Co4       1.0  0.00000  0.25000  0.50000  1.0000
  Co  Co5       1.0  0.16667  0.33333  0.83333  1.0000
  Co  Co6       1.0  0.08333  0.41667  0.16667  1.0000
  O   O7        1.0  0.00000  0.25000  0.76049  1.0000
  O   O8        1.0  0.00000  0.25000  0.23951  1.0000
  O   O9        1.0  0.16667  0.33333  0.09382  1.0000
  O   O10       1.0  0.16667  0.33333  0.57284  1.0000
  O   O11       1.0  0.08333  0.41667  0.42716  1.0000
  O   O12       1.0  0.08333  0.41667  0.90618  1.0000
  Li  Li6       1.0  0.00000  0.50000  0.00000  1.0000
  Li  Li7       1.0  0.16667  0.58333  0.33333  1.0000
  Li  Li8       1.0  0.08333  0.66667  0.66667  1.0000
  Co  Co7       1.0  0.00000  0.50000  0.50000  1.0000
  Co  Co8       1.0  0.16667  0.58333  0.83333  1.0000
  Co  Co9       1.0  0.08333  0.66667  0.16667  1.0000
  O   O13       1.0  0.00000  0.50000  0.76049  1.0000
  O   O14       1.0  0.00000  0.50000  0.23951  1.0000
  O   O15       1.0  0.16667  0.58333  0.09382  1.0000
  O   O16       1.0  0.16667  0.58333  0.57284  1.0000
  O   O17       1.0  0.08333  0.66667  0.42716  1.0000
  O   O18       1.0  0.08333  0.66667  0.90618  1.0000
  Li  Li9       1.0  0.00000  0.75000  0.00000  1.0000
  Li  Li10      1.0  0.16667  0.83333  0.33333  1.0000
  Li  Li11      1.0  0.08333  0.91667  0.66667  1.0000
  Co  Co10      1.0  0.00000  0.75000  0.50000  1.0000
  Co  Co11      1.0  0.16667  0.83333  0.83333  1.0000
  Co  Co12      1.0  0.08333  0.91667  0.16667  1.0000
  O   O19       1.0  0.00000  0.75000  0.76049  1.0000
  O   O20       1.0  0.00000  0.75000  0.23951  1.0000
  O   O21       1.0  0.16667  0.83333  0.09382  1.0000
  O   O22       1.0  0.16667  0.83333  0.57284  1.0000
  O   O23       1.0  0.08333  0.91667  0.42716  1.0000
  O   O24       1.0  0.08333  0.91667  0.90618  1.0000
  Li  Li12      1.0  0.25000  0.00000  0.00000  1.0000
  Li  Li13      1.0  0.41667  0.08333  0.33333  1.0000
  Li  Li14      1.0  0.33333  0.16667  0.66667  1.0000
  Co  Co13      1.0  0.25000  0.00000  0.50000  1.0000
  Co  Co14      1.0  0.41667  0.08333  0.83333  1.0000
  Co  Co15      1.0  0.33333  0.16667  0.16667  1.0000
  O   O25       1.0  0.25000  0.00000  0.76049  1.0000
  O   O26       1.0  0.25000  0.00000  0.23951  1.0000
  O   O27       1.0  0.41667  0.08333  0.09382  1.0000
  O   O28       1.0  0.41667  0.08333  0.57284  1.0000
  O   O29       1.0  0.33333  0.16667  0.42716  1.0000
  O   O30       1.0  0.33333  0.16667  0.90618  1.0000
  Li  Li15      1.0  0.25000  0.25000  0.00000  1.0000
  Li  Li16      1.0  0.41667  0.33333  0.33333  1.0000
  Li  Li17      1.0  0.33333  0.41667  0.66667  1.0000
  Co  Co16      1.0  0.25000  0.25000  0.50000  1.0000
  Co  Co17      1.0  0.41667  0.33333  0.83333  1.0000
  Co  Co18      1.0  0.33333  0.41667  0.16667  1.0000
  O   O31       1.0  0.25000  0.25000  0.76049  1.0000
  O   O32       1.0  0.25000  0.25000  0.23951  1.0000
  O   O33       1.0  0.41667  0.33333  0.09382  1.0000
  O   O34       1.0  0.41667  0.33333  0.57284  1.0000
  O   O35       1.0  0.33333  0.41667  0.42716  1.0000
  O   O36       1.0  0.33333  0.41667  0.90618  1.0000
  Li  Li18      1.0  0.25000  0.50000  0.00000  1.0000
  Li  Li19      1.0  0.41667  0.58333  0.33333  1.0000
  Li  Li20      1.0  0.33333  0.66667  0.66667  1.0000
  Co  Co19      1.0  0.25000  0.50000  0.50000  1.0000
  Co  Co20      1.0  0.41667  0.58333  0.83333  1.0000
  Co  Co21      1.0  0.33333  0.66667  0.16667  1.0000
  O   O37       1.0  0.25000  0.50000  0.76049  1.0000
  O   O38       1.0  0.25000  0.50000  0.23951  1.0000
  O   O39       1.0  0.41667  0.58333  0.09382  1.0000
  O   O40       1.0  0.41667  0.58333  0.57284  1.0000
  O   O41       1.0  0.33333  0.66667  0.42716  1.0000
  O   O42       1.0  0.33333  0.66667  0.90618  1.0000
  Li  Li21      1.0  0.25000  0.75000  0.00000  1.0000
  Li  Li22      1.0  0.41667  0.83333  0.33333  1.0000
  Li  Li23      1.0  0.33333  0.91667  0.66667  1.0000
  Co  Co22      1.0  0.25000  0.75000  0.50000  1.0000
  Co  Co23      1.0  0.41667  0.83333  0.83333  1.0000
  Co  Co24      1.0  0.33333  0.91667  0.16667  1.0000
  O   O43       1.0  0.25000  0.75000  0.76049  1.0000
  O   O44       1.0  0.25000  0.75000  0.23951  1.0000
  O   O45       1.0  0.41667  0.83333  0.09382  1.0000
  O   O46       1.0  0.41667  0.83333  0.57284  1.0000
  O   O47       1.0  0.33333  0.91667  0.42716  1.0000
  O   O48       1.0  0.33333  0.91667  0.90618  1.0000
  Li  Li24      1.0  0.50000  0.00000  0.00000  1.0000
  Li  Li25      1.0  0.66667  0.08333  0.33333  1.0000
  Li  Li26      1.0  0.58333  0.16667  0.66667  1.0000
  Co  Co25      1.0  0.50000  0.00000  0.50000  1.0000
  Co  Co26      1.0  0.66667  0.08333  0.83333  1.0000
  Co  Co27      1.0  0.58333  0.16667  0.16667  1.0000
  O   O49       1.0  0.50000  0.00000  0.76049  1.0000
  O   O50       1.0  0.50000  0.00000  0.23951  1.0000
  O   O51       1.0  0.66667  0.08333  0.09382  1.0000
  O   O52       1.0  0.66667  0.08333  0.57284  1.0000
  O   O53       1.0  0.58333  0.16667  0.42716  1.0000
  O   O54       1.0  0.58333  0.16667  0.90618  1.0000
  Li  Li27      1.0  0.50000  0.25000  0.00000  1.0000
  Li  Li28      1.0  0.66667  0.33333  0.33333  1.0000
  Li  Li29      1.0  0.58333  0.41667  0.66667  1.0000
  Co  Co28      1.0  0.50000  0.25000  0.50000  1.0000
  Co  Co29      1.0  0.66667  0.33333  0.83333  1.0000
  Co  Co30      1.0  0.58333  0.41667  0.16667  1.0000
  O   O55       1.0  0.50000  0.25000  0.76049  1.0000
  O   O56       1.0  0.50000  0.25000  0.23951  1.0000
  O   O57       1.0  0.66667  0.33333  0.09382  1.0000
  O   O58       1.0  0.66667  0.33333  0.57284  1.0000
  O   O59       1.0  0.58333  0.41667  0.42716  1.0000
  O   O60       1.0  0.58333  0.41667  0.90618  1.0000
  Li  Li30      1.0  0.50000  0.50000  0.00000  1.0000
  Li  Li31      1.0  0.66667  0.58333  0.33333  1.0000
  Li  Li32      1.0  0.58333  0.66667  0.66667  1.0000
  Co  Co31      1.0  0.50000  0.50000  0.50000  1.0000
  Co  Co32      1.0  0.66667  0.58333  0.83333  1.0000
  Co  Co33      1.0  0.58333  0.66667  0.16667  1.0000
  O   O61       1.0  0.50000  0.50000  0.76049  1.0000
  O   O62       1.0  0.50000  0.50000  0.23951  1.0000
  O   O63       1.0  0.66667  0.58333  0.09382  1.0000
  O   O64       1.0  0.66667  0.58333  0.57284  1.0000
  O   O65       1.0  0.58333  0.66667  0.42716  1.0000
  O   O66       1.0  0.58333  0.66667  0.90618  1.0000
  Li  Li33      1.0  0.50000  0.75000  0.00000  1.0000
  Li  Li34      1.0  0.66667  0.83333  0.33333  1.0000
  Li  Li35      1.0  0.58333  0.91667  0.66667  1.0000
  Co  Co34      1.0  0.50000  0.75000  0.50000  1.0000
  Co  Co35      1.0  0.66667  0.83333  0.83333  1.0000
  Co  Co36      1.0  0.58333  0.91667  0.16667  1.0000
  O   O67       1.0  0.50000  0.75000  0.76049  1.0000
  O   O68       1.0  0.50000  0.75000  0.23951  1.0000
  O   O69       1.0  0.66667  0.83333  0.09382  1.0000
  O   O70       1.0  0.66667  0.83333  0.57284  1.0000
  O   O71       1.0  0.58333  0.91667  0.42716  1.0000
  O   O72       1.0  0.58333  0.91667  0.90618  1.0000
  Li  Li36      1.0  0.75000  0.00000  0.00000  1.0000
  Li  Li37      1.0  0.91667  0.08333  0.33333  1.0000
  Li  Li38      1.0  0.83333  0.16667  0.66667  1.0000
  Co  Co37      1.0  0.75000  0.00000  0.50000  1.0000
  Co  Co38      1.0  0.91667  0.08333  0.83333  1.0000
  Co  Co39      1.0  0.83333  0.16667  0.16667  1.0000
  O   O73       1.0  0.75000  0.00000  0.76049  1.0000
  O   O74       1.0  0.75000  0.00000  0.23951  1.0000
  O   O75       1.0  0.91667  0.08333  0.09382  1.0000
  O   O76       1.0  0.91667  0.08333  0.57284  1.0000
  O   O77       1.0  0.83333  0.16667  0.42716  1.0000
  O   O78       1.0  0.83333  0.16667  0.90618  1.0000
  Li  Li39      1.0  0.75000  0.25000  0.00000  1.0000
  Li  Li40      1.0  0.91667  0.33333  0.33333  1.0000
  Li  Li41      1.0  0.83333  0.41667  0.66667  1.0000
  Co  Co40      1.0  0.75000  0.25000  0.50000  1.0000
  Co  Co41      1.0  0.91667  0.33333  0.83333  1.0000
  Co  Co42      1.0  0.83333  0.41667  0.16667  1.0000
  O   O79       1.0  0.75000  0.25000  0.76049  1.0000
  O   O80       1.0  0.75000  0.25000  0.23951  1.0000
  O   O81       1.0  0.91667  0.33333  0.09382  1.0000
  O   O82       1.0  0.91667  0.33333  0.57284  1.0000
  O   O83       1.0  0.83333  0.41667  0.42716  1.0000
  O   O84       1.0  0.83333  0.41667  0.90618  1.0000
  Li  Li42      1.0  0.75000  0.50000  0.00000  1.0000
  Li  Li43      1.0  0.91667  0.58333  0.33333  1.0000
  Li  Li44      1.0  0.83333  0.66667  0.66667  1.0000
  Co  Co43      1.0  0.75000  0.50000  0.50000  1.0000
  Co  Co44      1.0  0.91667  0.58333  0.83333  1.0000
  Co  Co45      1.0  0.83333  0.66667  0.16667  1.0000
  O   O85       1.0  0.75000  0.50000  0.76049  1.0000
  O   O86       1.0  0.75000  0.50000  0.23951  1.0000
  O   O87       1.0  0.91667  0.58333  0.09382  1.0000
  O   O88       1.0  0.91667  0.58333  0.57284  1.0000
  O   O89       1.0  0.83333  0.66667  0.42716  1.0000
  O   O90       1.0  0.83333  0.66667  0.90618  1.0000
  Li  Li45      1.0  0.75000  0.75000  0.00000  1.0000
  Li  Li46      1.0  0.91667  0.83333  0.33333  1.0000
  Li  Li47      1.0  0.83333  0.91667  0.66667  1.0000
  Co  Co46      1.0  0.75000  0.75000  0.50000  1.0000
  Co  Co47      1.0  0.91667  0.83333  0.83333  1.0000
  Co  Co48      1.0  0.83333  0.91667  0.16667  1.0000
  O   O91       1.0  0.75000  0.75000  0.76049  1.0000
  O   O92       1.0  0.75000  0.75000  0.23951  1.0000
  O   O93       1.0  0.91667  0.83333  0.09382  1.0000
  O   O94       1.0  0.91667  0.83333  0.57284  1.0000
  O   O95       1.0  0.83333  0.91667  0.42716  1.0000
  O   O96       1.0  0.83333  0.91667  0.90618  1.0000
data_image21
_chemical_formula_structural       Li3Co3O6Li2Co3O6Li3Co3O6Li3Co3O6Li3Co3O6Li3Co3O6Li3Co3O6Li3Co3O6Li3Co3O6Li3Co3O6Li3Co3O6Li3Co3O6Li3Co3O6Li3Co3O6Li3Co3O6Li3Co3O6
_chemical_formula_sum              "Li47 Co48 O96"
_cell_length_a       11.2644
_cell_length_b       11.2644
_cell_length_c       14.0536
_cell_angle_alpha    90
_cell_angle_beta     90
_cell_angle_gamma    120

_space_group_name_H-M_alt    "P 1"
_space_group_IT_number       1

loop_
  _space_group_symop_operation_xyz
  'x, y, z'

loop_
  _atom_site_type_symbol
  _atom_site_label
  _atom_site_symmetry_multiplicity
  _atom_site_fract_x
  _atom_site_fract_y
  _atom_site_fract_z
  _atom_site_occupancy
  Li  Li1       1.0  0.03061  0.20352  0.01155  1.0000
  Li  Li2       1.0  0.16667  0.08333  0.33333  1.0000
  Li  Li3       1.0  0.08333  0.16667  0.66667  1.0000
  Co  Co1       1.0  0.00000  0.00000  0.50000  1.0000
  Co  Co2       1.0  0.16667  0.08333  0.83333  1.0000
  Co  Co3       1.0  0.08333  0.16667  0.16667  1.0000
  O   O1        1.0  0.00000  0.00000  0.76049  1.0000
  O   O2        1.0  0.00000  0.00000  0.23951  1.0000
  O   O3        1.0  0.16667  0.08333  0.09382  1.0000
  O   O4        1.0  0.16667  0.08333  0.57284  1.0000
  O   O5        1.0  0.08333  0.16667  0.42716  1.0000
  O   O6        1.0  0.08333  0.16667  0.90618  1.0000
  Li  Li4       1.0  0.16667  0.33333  0.33333  1.0000
  Li  Li5       1.0  0.08333  0.41667  0.66667  1.0000
  Co  Co4       1.0  0.00000  0.25000  0.50000  1.0000
  Co  Co5       1.0  0.16667  0.33333  0.83333  1.0000
  Co  Co6       1.0  0.08333  0.41667  0.16667  1.0000
  O   O7        1.0  0.00000  0.25000  0.76049  1.0000
  O   O8        1.0  0.00000  0.25000  0.23951  1.0000
  O   O9        1.0  0.16667  0.33333  0.09382  1.0000
  O   O10       1.0  0.16667  0.33333  0.57284  1.0000
  O   O11       1.0  0.08333  0.41667  0.42716  1.0000
  O   O12       1.0  0.08333  0.41667  0.90618  1.0000
  Li  Li6       1.0  0.00000  0.50000  0.00000  1.0000
  Li  Li7       1.0  0.16667  0.58333  0.33333  1.0000
  Li  Li8       1.0  0.08333  0.66667  0.66667  1.0000
  Co  Co7       1.0  0.00000  0.50000  0.50000  1.0000
  Co  Co8       1.0  0.16667  0.58333  0.83333  1.0000
  Co  Co9       1.0  0.08333  0.66667  0.16667  1.0000
  O   O13       1.0  0.00000  0.50000  0.76049  1.0000
  O   O14       1.0  0.00000  0.50000  0.23951  1.0000
  O   O15       1.0  0.16667  0.58333  0.09382  1.0000
  O   O16       1.0  0.16667  0.58333  0.57284  1.0000
  O   O17       1.0  0.08333  0.66667  0.42716  1.0000
  O   O18       1.0  0.08333  0.66667  0.90618  1.0000
  Li  Li9       1.0  0.00000  0.75000  0.00000  1.0000
  Li  Li10      1.0  0.16667  0.83333  0.33333  1.0000
  Li  Li11      1.0  0.08333  0.91667  0.66667  1.0000
  Co  Co10      1.0  0.00000  0.75000  0.50000  1.0000
  Co  Co11      1.0  0.16667  0.83333  0.83333  1.0000
  Co  Co12      1.0  0.08333  0.91667  0.16667  1.0000
  O   O19       1.0  0.00000  0.75000  0.76049  1.0000
  O   O20       1.0  0.00000  0.75000  0.23951  1.0000
  O   O21       1.0  0.16667  0.83333  0.09382  1.0000
  O   O22       1.0  0.16667  0.83333  0.57284  1.0000
  O   O23       1.0  0.08333  0.91667  0.42716  1.0000
  O   O24       1.0  0.08333  0.91667  0.90618  1.0000
  Li  Li12      1.0  0.25000  0.00000  0.00000  1.0000
  Li  Li13      1.0  0.41667  0.08333  0.33333  1.0000
  Li  Li14      1.0  0.33333  0.16667  0.66667  1.0000
  Co  Co13      1.0  0.25000  0.00000  0.50000  1.0000
  Co  Co14      1.0  0.41667  0.08333  0.83333  1.0000
  Co  Co15      1.0  0.33333  0.16667  0.16667  1.0000
  O   O25       1.0  0.25000  0.00000  0.76049  1.0000
  O   O26       1.0  0.25000  0.00000  0.23951  1.0000
  O   O27       1.0  0.41667  0.08333  0.09382  1.0000
  O   O28       1.0  0.41667  0.08333  0.57284  1.0000
  O   O29       1.0  0.33333  0.16667  0.42716  1.0000
  O   O30       1.0  0.33333  0.16667  0.90618  1.0000
  Li  Li15      1.0  0.25000  0.25000  0.00000  1.0000
  Li  Li16      1.0  0.41667  0.33333  0.33333  1.0000
  Li  Li17      1.0  0.33333  0.41667  0.66667  1.0000
  Co  Co16      1.0  0.25000  0.25000  0.50000  1.0000
  Co  Co17      1.0  0.41667  0.33333  0.83333  1.0000
  Co  Co18      1.0  0.33333  0.41667  0.16667  1.0000
  O   O31       1.0  0.25000  0.25000  0.76049  1.0000
  O   O32       1.0  0.25000  0.25000  0.23951  1.0000
  O   O33       1.0  0.41667  0.33333  0.09382  1.0000
  O   O34       1.0  0.41667  0.33333  0.57284  1.0000
  O   O35       1.0  0.33333  0.41667  0.42716  1.0000
  O   O36       1.0  0.33333  0.41667  0.90618  1.0000
  Li  Li18      1.0  0.25000  0.50000  0.00000  1.0000
  Li  Li19      1.0  0.41667  0.58333  0.33333  1.0000
  Li  Li20      1.0  0.33333  0.66667  0.66667  1.0000
  Co  Co19      1.0  0.25000  0.50000  0.50000  1.0000
  Co  Co20      1.0  0.41667  0.58333  0.83333  1.0000
  Co  Co21      1.0  0.33333  0.66667  0.16667  1.0000
  O   O37       1.0  0.25000  0.50000  0.76049  1.0000
  O   O38       1.0  0.25000  0.50000  0.23951  1.0000
  O   O39       1.0  0.41667  0.58333  0.09382  1.0000
  O   O40       1.0  0.41667  0.58333  0.57284  1.0000
  O   O41       1.0  0.33333  0.66667  0.42716  1.0000
  O   O42       1.0  0.33333  0.66667  0.90618  1.0000
  Li  Li21      1.0  0.25000  0.75000  0.00000  1.0000
  Li  Li22      1.0  0.41667  0.83333  0.33333  1.0000
  Li  Li23      1.0  0.33333  0.91667  0.66667  1.0000
  Co  Co22      1.0  0.25000  0.75000  0.50000  1.0000
  Co  Co23      1.0  0.41667  0.83333  0.83333  1.0000
  Co  Co24      1.0  0.33333  0.91667  0.16667  1.0000
  O   O43       1.0  0.25000  0.75000  0.76049  1.0000
  O   O44       1.0  0.25000  0.75000  0.23951  1.0000
  O   O45       1.0  0.41667  0.83333  0.09382  1.0000
  O   O46       1.0  0.41667  0.83333  0.57284  1.0000
  O   O47       1.0  0.33333  0.91667  0.42716  1.0000
  O   O48       1.0  0.33333  0.91667  0.90618  1.0000
  Li  Li24      1.0  0.50000  0.00000  0.00000  1.0000
  Li  Li25      1.0  0.66667  0.08333  0.33333  1.0000
  Li  Li26      1.0  0.58333  0.16667  0.66667  1.0000
  Co  Co25      1.0  0.50000  0.00000  0.50000  1.0000
  Co  Co26      1.0  0.66667  0.08333  0.83333  1.0000
  Co  Co27      1.0  0.58333  0.16667  0.16667  1.0000
  O   O49       1.0  0.50000  0.00000  0.76049  1.0000
  O   O50       1.0  0.50000  0.00000  0.23951  1.0000
  O   O51       1.0  0.66667  0.08333  0.09382  1.0000
  O   O52       1.0  0.66667  0.08333  0.57284  1.0000
  O   O53       1.0  0.58333  0.16667  0.42716  1.0000
  O   O54       1.0  0.58333  0.16667  0.90618  1.0000
  Li  Li27      1.0  0.50000  0.25000  0.00000  1.0000
  Li  Li28      1.0  0.66667  0.33333  0.33333  1.0000
  Li  Li29      1.0  0.58333  0.41667  0.66667  1.0000
  Co  Co28      1.0  0.50000  0.25000  0.50000  1.0000
  Co  Co29      1.0  0.66667  0.33333  0.83333  1.0000
  Co  Co30      1.0  0.58333  0.41667  0.16667  1.0000
  O   O55       1.0  0.50000  0.25000  0.76049  1.0000
  O   O56       1.0  0.50000  0.25000  0.23951  1.0000
  O   O57       1.0  0.66667  0.33333  0.09382  1.0000
  O   O58       1.0  0.66667  0.33333  0.57284  1.0000
  O   O59       1.0  0.58333  0.41667  0.42716  1.0000
  O   O60       1.0  0.58333  0.41667  0.90618  1.0000
  Li  Li30      1.0  0.50000  0.50000  0.00000  1.0000
  Li  Li31      1.0  0.66667  0.58333  0.33333  1.0000
  Li  Li32      1.0  0.58333  0.66667  0.66667  1.0000
  Co  Co31      1.0  0.50000  0.50000  0.50000  1.0000
  Co  Co32      1.0  0.66667  0.58333  0.83333  1.0000
  Co  Co33      1.0  0.58333  0.66667  0.16667  1.0000
  O   O61       1.0  0.50000  0.50000  0.76049  1.0000
  O   O62       1.0  0.50000  0.50000  0.23951  1.0000
  O   O63       1.0  0.66667  0.58333  0.09382  1.0000
  O   O64       1.0  0.66667  0.58333  0.57284  1.0000
  O   O65       1.0  0.58333  0.66667  0.42716  1.0000
  O   O66       1.0  0.58333  0.66667  0.90618  1.0000
  Li  Li33      1.0  0.50000  0.75000  0.00000  1.0000
  Li  Li34      1.0  0.66667  0.83333  0.33333  1.0000
  Li  Li35      1.0  0.58333  0.91667  0.66667  1.0000
  Co  Co34      1.0  0.50000  0.75000  0.50000  1.0000
  Co  Co35      1.0  0.66667  0.83333  0.83333  1.0000
  Co  Co36      1.0  0.58333  0.91667  0.16667  1.0000
  O   O67       1.0  0.50000  0.75000  0.76049  1.0000
  O   O68       1.0  0.50000  0.75000  0.23951  1.0000
  O   O69       1.0  0.66667  0.83333  0.09382  1.0000
  O   O70       1.0  0.66667  0.83333  0.57284  1.0000
  O   O71       1.0  0.58333  0.91667  0.42716  1.0000
  O   O72       1.0  0.58333  0.91667  0.90618  1.0000
  Li  Li36      1.0  0.75000  0.00000  0.00000  1.0000
  Li  Li37      1.0  0.91667  0.08333  0.33333  1.0000
  Li  Li38      1.0  0.83333  0.16667  0.66667  1.0000
  Co  Co37      1.0  0.75000  0.00000  0.50000  1.0000
  Co  Co38      1.0  0.91667  0.08333  0.83333  1.0000
  Co  Co39      1.0  0.83333  0.16667  0.16667  1.0000
  O   O73       1.0  0.75000  0.00000  0.76049  1.0000
  O   O74       1.0  0.75000  0.00000  0.23951  1.0000
  O   O75       1.0  0.91667  0.08333  0.09382  1.0000
  O   O76       1.0  0.91667  0.08333  0.57284  1.0000
  O   O77       1.0  0.83333  0.16667  0.42716  1.0000
  O   O78       1.0  0.83333  0.16667  0.90618  1.0000
  Li  Li39      1.0  0.75000  0.25000  0.00000  1.0000
  Li  Li40      1.0  0.91667  0.33333  0.33333  1.0000
  Li  Li41      1.0  0.83333  0.41667  0.66667  1.0000
  Co  Co40      1.0  0.75000  0.25000  0.50000  1.0000
  Co  Co41      1.0  0.91667  0.33333  0.83333  1.0000
  Co  Co42      1.0  0.83333  0.41667  0.16667  1.0000
  O   O79       1.0  0.75000  0.25000  0.76049  1.0000
  O   O80       1.0  0.75000  0.25000  0.23951  1.0000
  O   O81       1.0  0.91667  0.33333  0.09382  1.0000
  O   O82       1.0  0.91667  0.33333  0.57284  1.0000
  O   O83       1.0  0.83333  0.41667  0.42716  1.0000
  O   O84       1.0  0.83333  0.41667  0.90618  1.0000
  Li  Li42      1.0  0.75000  0.50000  0.00000  1.0000
  Li  Li43      1.0  0.91667  0.58333  0.33333  1.0000
  Li  Li44      1.0  0.83333  0.66667  0.66667  1.0000
  Co  Co43      1.0  0.75000  0.50000  0.50000  1.0000
  Co  Co44      1.0  0.91667  0.58333  0.83333  1.0000
  Co  Co45      1.0  0.83333  0.66667  0.16667  1.0000
  O   O85       1.0  0.75000  0.50000  0.76049  1.0000
  O   O86       1.0  0.75000  0.50000  0.23951  1.0000
  O   O87       1.0  0.91667  0.58333  0.09382  1.0000
  O   O88       1.0  0.91667  0.58333  0.57284  1.0000
  O   O89       1.0  0.83333  0.66667  0.42716  1.0000
  O   O90       1.0  0.83333  0.66667  0.90618  1.0000
  Li  Li45      1.0  0.75000  0.75000  0.00000  1.0000
  Li  Li46      1.0  0.91667  0.83333  0.33333  1.0000
  Li  Li47      1.0  0.83333  0.91667  0.66667  1.0000
  Co  Co46      1.0  0.75000  0.75000  0.50000  1.0000
  Co  Co47      1.0  0.91667  0.83333  0.83333  1.0000
  Co  Co48      1.0  0.83333  0.91667  0.16667  1.0000
  O   O91       1.0  0.75000  0.75000  0.76049  1.0000
  O   O92       1.0  0.75000  0.75000  0.23951  1.0000
  O   O93       1.0  0.91667  0.83333  0.09382  1.0000
  O   O94       1.0  0.91667  0.83333  0.57284  1.0000
  O   O95       1.0  0.83333  0.91667  0.42716  1.0000
  O   O96       1.0  0.83333  0.91667  0.90618  1.0000
data_image22
_chemical_formula_structural       Li3Co3O6Li2Co3O6Li3Co3O6Li3Co3O6Li3Co3O6Li3Co3O6Li3Co3O6Li3Co3O6Li3Co3O6Li3Co3O6Li3Co3O6Li3Co3O6Li3Co3O6Li3Co3O6Li3Co3O6Li3Co3O6
_chemical_formula_sum              "Li47 Co48 O96"
_cell_length_a       11.2644
_cell_length_b       11.2644
_cell_length_c       14.0536
_cell_angle_alpha    90
_cell_angle_beta     90
_cell_angle_gamma    120

_space_group_name_H-M_alt    "P 1"
_space_group_IT_number       1

loop_
  _space_group_symop_operation_xyz
  'x, y, z'

loop_
  _atom_site_type_symbol
  _atom_site_label
  _atom_site_symmetry_multiplicity
  _atom_site_fract_x
  _atom_site_fract_y
  _atom_site_fract_z
  _atom_site_occupancy
  Li  Li1       1.0  0.00000  0.25000  0.00000  1.0000
  Li  Li2       1.0  0.16667  0.08333  0.33333  1.0000
  Li  Li3       1.0  0.08333  0.16667  0.66667  1.0000
  Co  Co1       1.0  0.00000  0.00000  0.50000  1.0000
  Co  Co2       1.0  0.16667  0.08333  0.83333  1.0000
  Co  Co3       1.0  0.08333  0.16667  0.16667  1.0000
  O   O1        1.0  0.00000  0.00000  0.76049  1.0000
  O   O2        1.0  0.00000  0.00000  0.23951  1.0000
  O   O3        1.0  0.16667  0.08333  0.09382  1.0000
  O   O4        1.0  0.16667  0.08333  0.57284  1.0000
  O   O5        1.0  0.08333  0.16667  0.42716  1.0000
  O   O6        1.0  0.08333  0.16667  0.90618  1.0000
  Li  Li4       1.0  0.16667  0.33333  0.33333  1.0000
  Li  Li5       1.0  0.08333  0.41667  0.66667  1.0000
  Co  Co4       1.0  0.00000  0.25000  0.50000  1.0000
  Co  Co5       1.0  0.16667  0.33333  0.83333  1.0000
  Co  Co6       1.0  0.08333  0.41667  0.16667  1.0000
  O   O7        1.0  0.00000  0.25000  0.76049  1.0000
  O   O8        1.0  0.00000  0.25000  0.23951  1.0000
  O   O9        1.0  0.16667  0.33333  0.09382  1.0000
  O   O10       1.0  0.16667  0.33333  0.57284  1.0000
  O   O11       1.0  0.08333  0.41667  0.42716  1.0000
  O   O12       1.0  0.08333  0.41667  0.90618  1.0000
  Li  Li6       1.0  0.00000  0.50000  0.00000  1.0000
  Li  Li7       1.0  0.16667  0.58333  0.33333  1.0000
  Li  Li8       1.0  0.08333  0.66667  0.66667  1.0000
  Co  Co7       1.0  0.00000  0.50000  0.50000  1.0000
  Co  Co8       1.0  0.16667  0.58333  0.83333  1.0000
  Co  Co9       1.0  0.08333  0.66667  0.16667  1.0000
  O   O13       1.0  0.00000  0.50000  0.76049  1.0000
  O   O14       1.0  0.00000  0.50000  0.23951  1.0000
  O   O15       1.0  0.16667  0.58333  0.09382  1.0000
  O   O16       1.0  0.16667  0.58333  0.57284  1.0000
  O   O17       1.0  0.08333  0.66667  0.42716  1.0000
  O   O18       1.0  0.08333  0.66667  0.90618  1.0000
  Li  Li9       1.0  0.00000  0.75000  0.00000  1.0000
  Li  Li10      1.0  0.16667  0.83333  0.33333  1.0000
  Li  Li11      1.0  0.08333  0.91667  0.66667  1.0000
  Co  Co10      1.0  0.00000  0.75000  0.50000  1.0000
  Co  Co11      1.0  0.16667  0.83333  0.83333  1.0000
  Co  Co12      1.0  0.08333  0.91667  0.16667  1.0000
  O   O19       1.0  0.00000  0.75000  0.76049  1.0000
  O   O20       1.0  0.00000  0.75000  0.23951  1.0000
  O   O21       1.0  0.16667  0.83333  0.09382  1.0000
  O   O22       1.0  0.16667  0.83333  0.57284  1.0000
  O   O23       1.0  0.08333  0.91667  0.42716  1.0000
  O   O24       1.0  0.08333  0.91667  0.90618  1.0000
  Li  Li12      1.0  0.25000  0.00000  0.00000  1.0000
  Li  Li13      1.0  0.41667  0.08333  0.33333  1.0000
  Li  Li14      1.0  0.33333  0.16667  0.66667  1.0000
  Co  Co13      1.0  0.25000  0.00000  0.50000  1.0000
  Co  Co14      1.0  0.41667  0.08333  0.83333  1.0000
  Co  Co15      1.0  0.33333  0.16667  0.16667  1.0000
  O   O25       1.0  0.25000  0.00000  0.76049  1.0000
  O   O26       1.0  0.25000  0.00000  0.23951  1.0000
  O   O27       1.0  0.41667  0.08333  0.09382  1.0000
  O   O28       1.0  0.41667  0.08333  0.57284  1.0000
  O   O29       1.0  0.33333  0.16667  0.42716  1.0000
  O   O30       1.0  0.33333  0.16667  0.90618  1.0000
  Li  Li15      1.0  0.25000  0.25000  0.00000  1.0000
  Li  Li16      1.0  0.41667  0.33333  0.33333  1.0000
  Li  Li17      1.0  0.33333  0.41667  0.66667  1.0000
  Co  Co16      1.0  0.25000  0.25000  0.50000  1.0000
  Co  Co17      1.0  0.41667  0.33333  0.83333  1.0000
  Co  Co18      1.0  0.33333  0.41667  0.16667  1.0000
  O   O31       1.0  0.25000  0.25000  0.76049  1.0000
  O   O32       1.0  0.25000  0.25000  0.23951  1.0000
  O   O33       1.0  0.41667  0.33333  0.09382  1.0000
  O   O34       1.0  0.41667  0.33333  0.57284  1.0000
  O   O35       1.0  0.33333  0.41667  0.42716  1.0000
  O   O36       1.0  0.33333  0.41667  0.90618  1.0000
  Li  Li18      1.0  0.25000  0.50000  0.00000  1.0000
  Li  Li19      1.0  0.41667  0.58333  0.33333  1.0000
  Li  Li20      1.0  0.33333  0.66667  0.66667  1.0000
  Co  Co19      1.0  0.25000  0.50000  0.50000  1.0000
  Co  Co20      1.0  0.41667  0.58333  0.83333  1.0000
  Co  Co21      1.0  0.33333  0.66667  0.16667  1.0000
  O   O37       1.0  0.25000  0.50000  0.76049  1.0000
  O   O38       1.0  0.25000  0.50000  0.23951  1.0000
  O   O39       1.0  0.41667  0.58333  0.09382  1.0000
  O   O40       1.0  0.41667  0.58333  0.57284  1.0000
  O   O41       1.0  0.33333  0.66667  0.42716  1.0000
  O   O42       1.0  0.33333  0.66667  0.90618  1.0000
  Li  Li21      1.0  0.25000  0.75000  0.00000  1.0000
  Li  Li22      1.0  0.41667  0.83333  0.33333  1.0000
  Li  Li23      1.0  0.33333  0.91667  0.66667  1.0000
  Co  Co22      1.0  0.25000  0.75000  0.50000  1.0000
  Co  Co23      1.0  0.41667  0.83333  0.83333  1.0000
  Co  Co24      1.0  0.33333  0.91667  0.16667  1.0000
  O   O43       1.0  0.25000  0.75000  0.76049  1.0000
  O   O44       1.0  0.25000  0.75000  0.23951  1.0000
  O   O45       1.0  0.41667  0.83333  0.09382  1.0000
  O   O46       1.0  0.41667  0.83333  0.57284  1.0000
  O   O47       1.0  0.33333  0.91667  0.42716  1.0000
  O   O48       1.0  0.33333  0.91667  0.90618  1.0000
  Li  Li24      1.0  0.50000  0.00000  0.00000  1.0000
  Li  Li25      1.0  0.66667  0.08333  0.33333  1.0000
  Li  Li26      1.0  0.58333  0.16667  0.66667  1.0000
  Co  Co25      1.0  0.50000  0.00000  0.50000  1.0000
  Co  Co26      1.0  0.66667  0.08333  0.83333  1.0000
  Co  Co27      1.0  0.58333  0.16667  0.16667  1.0000
  O   O49       1.0  0.50000  0.00000  0.76049  1.0000
  O   O50       1.0  0.50000  0.00000  0.23951  1.0000
  O   O51       1.0  0.66667  0.08333  0.09382  1.0000
  O   O52       1.0  0.66667  0.08333  0.57284  1.0000
  O   O53       1.0  0.58333  0.16667  0.42716  1.0000
  O   O54       1.0  0.58333  0.16667  0.90618  1.0000
  Li  Li27      1.0  0.50000  0.25000  0.00000  1.0000
  Li  Li28      1.0  0.66667  0.33333  0.33333  1.0000
  Li  Li29      1.0  0.58333  0.41667  0.66667  1.0000
  Co  Co28      1.0  0.50000  0.25000  0.50000  1.0000
  Co  Co29      1.0  0.66667  0.33333  0.83333  1.0000
  Co  Co30      1.0  0.58333  0.41667  0.16667  1.0000
  O   O55       1.0  0.50000  0.25000  0.76049  1.0000
  O   O56       1.0  0.50000  0.25000  0.23951  1.0000
  O   O57       1.0  0.66667  0.33333  0.09382  1.0000
  O   O58       1.0  0.66667  0.33333  0.57284  1.0000
  O   O59       1.0  0.58333  0.41667  0.42716  1.0000
  O   O60       1.0  0.58333  0.41667  0.90618  1.0000
  Li  Li30      1.0  0.50000  0.50000  0.00000  1.0000
  Li  Li31      1.0  0.66667  0.58333  0.33333  1.0000
  Li  Li32      1.0  0.58333  0.66667  0.66667  1.0000
  Co  Co31      1.0  0.50000  0.50000  0.50000  1.0000
  Co  Co32      1.0  0.66667  0.58333  0.83333  1.0000
  Co  Co33      1.0  0.58333  0.66667  0.16667  1.0000
  O   O61       1.0  0.50000  0.50000  0.76049  1.0000
  O   O62       1.0  0.50000  0.50000  0.23951  1.0000
  O   O63       1.0  0.66667  0.58333  0.09382  1.0000
  O   O64       1.0  0.66667  0.58333  0.57284  1.0000
  O   O65       1.0  0.58333  0.66667  0.42716  1.0000
  O   O66       1.0  0.58333  0.66667  0.90618  1.0000
  Li  Li33      1.0  0.50000  0.75000  0.00000  1.0000
  Li  Li34      1.0  0.66667  0.83333  0.33333  1.0000
  Li  Li35      1.0  0.58333  0.91667  0.66667  1.0000
  Co  Co34      1.0  0.50000  0.75000  0.50000  1.0000
  Co  Co35      1.0  0.66667  0.83333  0.83333  1.0000
  Co  Co36      1.0  0.58333  0.91667  0.16667  1.0000
  O   O67       1.0  0.50000  0.75000  0.76049  1.0000
  O   O68       1.0  0.50000  0.75000  0.23951  1.0000
  O   O69       1.0  0.66667  0.83333  0.09382  1.0000
  O   O70       1.0  0.66667  0.83333  0.57284  1.0000
  O   O71       1.0  0.58333  0.91667  0.42716  1.0000
  O   O72       1.0  0.58333  0.91667  0.90618  1.0000
  Li  Li36      1.0  0.75000  0.00000  0.00000  1.0000
  Li  Li37      1.0  0.91667  0.08333  0.33333  1.0000
  Li  Li38      1.0  0.83333  0.16667  0.66667  1.0000
  Co  Co37      1.0  0.75000  0.00000  0.50000  1.0000
  Co  Co38      1.0  0.91667  0.08333  0.83333  1.0000
  Co  Co39      1.0  0.83333  0.16667  0.16667  1.0000
  O   O73       1.0  0.75000  0.00000  0.76049  1.0000
  O   O74       1.0  0.75000  0.00000  0.23951  1.0000
  O   O75       1.0  0.91667  0.08333  0.09382  1.0000
  O   O76       1.0  0.91667  0.08333  0.57284  1.0000
  O   O77       1.0  0.83333  0.16667  0.42716  1.0000
  O   O78       1.0  0.83333  0.16667  0.90618  1.0000
  Li  Li39      1.0  0.75000  0.25000  0.00000  1.0000
  Li  Li40      1.0  0.91667  0.33333  0.33333  1.0000
  Li  Li41      1.0  0.83333  0.41667  0.66667  1.0000
  Co  Co40      1.0  0.75000  0.25000  0.50000  1.0000
  Co  Co41      1.0  0.91667  0.33333  0.83333  1.0000
  Co  Co42      1.0  0.83333  0.41667  0.16667  1.0000
  O   O79       1.0  0.75000  0.25000  0.76049  1.0000
  O   O80       1.0  0.75000  0.25000  0.23951  1.0000
  O   O81       1.0  0.91667  0.33333  0.09382  1.0000
  O   O82       1.0  0.91667  0.33333  0.57284  1.0000
  O   O83       1.0  0.83333  0.41667  0.42716  1.0000
  O   O84       1.0  0.83333  0.41667  0.90618  1.0000
  Li  Li42      1.0  0.75000  0.50000  0.00000  1.0000
  Li  Li43      1.0  0.91667  0.58333  0.33333  1.0000
  Li  Li44      1.0  0.83333  0.66667  0.66667  1.0000
  Co  Co43      1.0  0.75000  0.50000  0.50000  1.0000
  Co  Co44      1.0  0.91667  0.58333  0.83333  1.0000
  Co  Co45      1.0  0.83333  0.66667  0.16667  1.0000
  O   O85       1.0  0.75000  0.50000  0.76049  1.0000
  O   O86       1.0  0.75000  0.50000  0.23951  1.0000
  O   O87       1.0  0.91667  0.58333  0.09382  1.0000
  O   O88       1.0  0.91667  0.58333  0.57284  1.0000
  O   O89       1.0  0.83333  0.66667  0.42716  1.0000
  O   O90       1.0  0.83333  0.66667  0.90618  1.0000
  Li  Li45      1.0  0.75000  0.75000  0.00000  1.0000
  Li  Li46      1.0  0.91667  0.83333  0.33333  1.0000
  Li  Li47      1.0  0.83333  0.91667  0.66667  1.0000
  Co  Co46      1.0  0.75000  0.75000  0.50000  1.0000
  Co  Co47      1.0  0.91667  0.83333  0.83333  1.0000
  Co  Co48      1.0  0.83333  0.91667  0.16667  1.0000
  O   O91       1.0  0.75000  0.75000  0.76049  1.0000
  O   O92       1.0  0.75000  0.75000  0.23951  1.0000
  O   O93       1.0  0.91667  0.83333  0.09382  1.0000
  O   O94       1.0  0.91667  0.83333  0.57284  1.0000
  O   O95       1.0  0.83333  0.91667  0.42716  1.0000
  O   O96       1.0  0.83333  0.91667  0.90618  1.0000
